<routes>
            <vType accel="1.0" decel="4.5" id="standard_car" length="5.0" minGap="2.5" maxSpeed="25" sigma="0.5" />

            <route id="W_N" edges="W2TL TL2N"/>
            <route id="W_E" edges="W2TL TL2E"/>
            <route id="W_S" edges="W2TL TL2S"/>
            <route id="N_W" edges="N2TL TL2W"/>
            <route id="N_E" edges="N2TL TL2E"/>
            <route id="N_S" edges="N2TL TL2S"/>
            <route id="E_W" edges="E2TL TL2W"/>
            <route id="E_N" edges="E2TL TL2N"/>
            <route id="E_S" edges="E2TL TL2S"/>
            <route id="S_W" edges="S2TL TL2W"/>
            <route id="S_N" edges="S2TL TL2N"/>
            <route id="S_E" edges="S2TL TL2E"/>
    <vehicle id="E_W_0" type="standard_car" route="E_W" depart="24.0" departLane="random" departSpeed="10" />
    <vehicle id="W_N_1" type="standard_car" route="W_N" depart="47.0" departLane="random" departSpeed="10" />
    <vehicle id="S_E_2" type="standard_car" route="S_E" depart="68.0" departLane="random" departSpeed="10" />
    <vehicle id="N_S_3" type="standard_car" route="N_S" depart="74.0" departLane="random" departSpeed="10" />
    <vehicle id="N_S_4" type="standard_car" route="N_S" depart="105.0" departLane="random" departSpeed="10" />
    <vehicle id="W_E_5" type="standard_car" route="W_E" depart="118.0" departLane="random" departSpeed="10" />
    <vehicle id="E_W_6" type="standard_car" route="E_W" depart="122.0" departLane="random" departSpeed="10" />
    <vehicle id="S_E_7" type="standard_car" route="S_E" depart="135.0" departLane="random" departSpeed="10" />
    <vehicle id="W_N_8" type="standard_car" route="W_N" depart="144.0" departLane="random" departSpeed="10" />
    <vehicle id="E_W_9" type="standard_car" route="E_W" depart="152.0" departLane="random" departSpeed="10" />
    <vehicle id="W_S_10" type="standard_car" route="W_S" depart="163.0" departLane="random" departSpeed="10" />
    <vehicle id="W_N_11" type="standard_car" route="W_N" depart="169.0" departLane="random" departSpeed="10" />
    <vehicle id="S_N_12" type="standard_car" route="S_N" depart="178.0" departLane="random" departSpeed="10" />
    <vehicle id="S_N_13" type="standard_car" route="S_N" depart="182.0" departLane="random" departSpeed="10" />
    <vehicle id="W_S_14" type="standard_car" route="W_S" depart="186.0" departLane="random" departSpeed="10" />
    <vehicle id="S_N_15" type="standard_car" route="S_N" depart="206.0" departLane="random" departSpeed="10" />
    <vehicle id="E_W_16" type="standard_car" route="E_W" depart="219.0" departLane="random" departSpeed="10" />
    <vehicle id="N_E_17" type="standard_car" route="N_E" depart="224.0" departLane="random" departSpeed="10" />
    <vehicle id="N_S_18" type="standard_car" route="N_S" depart="228.0" departLane="random" departSpeed="10" />
    <vehicle id="W_E_19" type="standard_car" route="W_E" depart="232.0" departLane="random" departSpeed="10" />
    <vehicle id="W_E_20" type="standard_car" route="W_E" depart="266.0" departLane="random" departSpeed="10" />
    <vehicle id="N_S_21" type="standard_car" route="N_S" depart="276.0" departLane="random" departSpeed="10" />
    <vehicle id="S_N_22" type="standard_car" route="S_N" depart="280.0" departLane="random" departSpeed="10" />
    <vehicle id="S_N_23" type="standard_car" route="S_N" depart="286.0" departLane="random" departSpeed="10" />
    <vehicle id="S_W_24" type="standard_car" route="S_W" depart="304.0" departLane="random" departSpeed="10" />
    <vehicle id="S_N_25" type="standard_car" route="S_N" depart="305.0" departLane="random" departSpeed="10" />
    <vehicle id="E_W_26" type="standard_car" route="E_W" depart="311.0" departLane="random" departSpeed="10" />
    <vehicle id="S_N_27" type="standard_car" route="S_N" depart="315.0" departLane="random" departSpeed="10" />
    <vehicle id="S_N_28" type="standard_car" route="S_N" depart="316.0" departLane="random" departSpeed="10" />
    <vehicle id="E_W_29" type="standard_car" route="E_W" depart="322.0" departLane="random" departSpeed="10" />
    <vehicle id="E_W_30" type="standard_car" route="E_W" depart="328.0" departLane="random" departSpeed="10" />
    <vehicle id="W_S_31" type="standard_car" route="W_S" depart="333.0" departLane="random" departSpeed="10" />
    <vehicle id="W_E_32" type="standard_car" route="W_E" depart="341.0" departLane="random" departSpeed="10" />
    <vehicle id="N_S_33" type="standard_car" route="N_S" depart="342.0" departLane="random" departSpeed="10" />
    <vehicle id="E_W_34" type="standard_car" route="E_W" depart="357.0" departLane="random" departSpeed="10" />
    <vehicle id="E_W_35" type="standard_car" route="E_W" depart="359.0" departLane="random" departSpeed="10" />
    <vehicle id="N_S_36" type="standard_car" route="N_S" depart="361.0" departLane="random" departSpeed="10" />
    <vehicle id="W_N_37" type="standard_car" route="W_N" depart="362.0" departLane="random" departSpeed="10" />
    <vehicle id="W_E_38" type="standard_car" route="W_E" depart="367.0" departLane="random" departSpeed="10" />
    <vehicle id="N_S_39" type="standard_car" route="N_S" depart="378.0" departLane="random" departSpeed="10" />
    <vehicle id="N_S_40" type="standard_car" route="N_S" depart="378.0" departLane="random" departSpeed="10" />
    <vehicle id="N_W_41" type="standard_car" route="N_W" depart="384.0" departLane="random" departSpeed="10" />
    <vehicle id="E_W_42" type="standard_car" route="E_W" depart="385.0" departLane="random" departSpeed="10" />
    <vehicle id="N_S_43" type="standard_car" route="N_S" depart="386.0" departLane="random" departSpeed="10" />
    <vehicle id="E_W_44" type="standard_car" route="E_W" depart="389.0" departLane="random" departSpeed="10" />
    <vehicle id="W_E_45" type="standard_car" route="W_E" depart="395.0" departLane="random" departSpeed="10" />
    <vehicle id="W_S_46" type="standard_car" route="W_S" depart="398.0" departLane="random" departSpeed="10" />
    <vehicle id="E_W_47" type="standard_car" route="E_W" depart="399.0" departLane="random" departSpeed="10" />
    <vehicle id="W_N_48" type="standard_car" route="W_N" depart="402.0" departLane="random" departSpeed="10" />
    <vehicle id="E_N_49" type="standard_car" route="E_N" depart="410.0" departLane="random" departSpeed="10" />
    <vehicle id="E_W_50" type="standard_car" route="E_W" depart="413.0" departLane="random" departSpeed="10" />
    <vehicle id="S_W_51" type="standard_car" route="S_W" depart="414.0" departLane="random" departSpeed="10" />
    <vehicle id="E_W_52" type="standard_car" route="E_W" depart="416.0" departLane="random" departSpeed="10" />
    <vehicle id="E_S_53" type="standard_car" route="E_S" depart="418.0" departLane="random" departSpeed="10" />
    <vehicle id="S_E_54" type="standard_car" route="S_E" depart="419.0" departLane="random" departSpeed="10" />
    <vehicle id="E_S_55" type="standard_car" route="E_S" depart="421.0" departLane="random" departSpeed="10" />
    <vehicle id="N_S_56" type="standard_car" route="N_S" depart="421.0" departLane="random" departSpeed="10" />
    <vehicle id="N_W_57" type="standard_car" route="N_W" depart="426.0" departLane="random" departSpeed="10" />
    <vehicle id="E_W_58" type="standard_car" route="E_W" depart="426.0" departLane="random" departSpeed="10" />
    <vehicle id="W_E_59" type="standard_car" route="W_E" depart="430.0" departLane="random" departSpeed="10" />
    <vehicle id="W_N_60" type="standard_car" route="W_N" depart="437.0" departLane="random" departSpeed="10" />
    <vehicle id="E_W_61" type="standard_car" route="E_W" depart="437.0" departLane="random" departSpeed="10" />
    <vehicle id="W_E_62" type="standard_car" route="W_E" depart="439.0" departLane="random" departSpeed="10" />
    <vehicle id="E_W_63" type="standard_car" route="E_W" depart="441.0" departLane="random" departSpeed="10" />
    <vehicle id="N_W_64" type="standard_car" route="N_W" depart="445.0" departLane="random" departSpeed="10" />
    <vehicle id="S_W_65" type="standard_car" route="S_W" depart="446.0" departLane="random" departSpeed="10" />
    <vehicle id="E_W_66" type="standard_car" route="E_W" depart="454.0" departLane="random" departSpeed="10" />
    <vehicle id="E_W_67" type="standard_car" route="E_W" depart="455.0" departLane="random" departSpeed="10" />
    <vehicle id="E_W_68" type="standard_car" route="E_W" depart="459.0" departLane="random" departSpeed="10" />
    <vehicle id="E_W_69" type="standard_car" route="E_W" depart="462.0" departLane="random" departSpeed="10" />
    <vehicle id="S_N_70" type="standard_car" route="S_N" depart="464.0" departLane="random" departSpeed="10" />
    <vehicle id="N_S_71" type="standard_car" route="N_S" depart="468.0" departLane="random" departSpeed="10" />
    <vehicle id="E_W_72" type="standard_car" route="E_W" depart="469.0" departLane="random" departSpeed="10" />
    <vehicle id="E_N_73" type="standard_car" route="E_N" depart="470.0" departLane="random" departSpeed="10" />
    <vehicle id="S_N_74" type="standard_car" route="S_N" depart="476.0" departLane="random" departSpeed="10" />
    <vehicle id="E_N_75" type="standard_car" route="E_N" depart="482.0" departLane="random" departSpeed="10" />
    <vehicle id="E_N_76" type="standard_car" route="E_N" depart="485.0" departLane="random" departSpeed="10" />
    <vehicle id="S_N_77" type="standard_car" route="S_N" depart="488.0" departLane="random" departSpeed="10" />
    <vehicle id="W_E_78" type="standard_car" route="W_E" depart="490.0" departLane="random" departSpeed="10" />
    <vehicle id="N_S_79" type="standard_car" route="N_S" depart="492.0" departLane="random" departSpeed="10" />
    <vehicle id="N_S_80" type="standard_car" route="N_S" depart="498.0" departLane="random" departSpeed="10" />
    <vehicle id="S_N_81" type="standard_car" route="S_N" depart="500.0" departLane="random" departSpeed="10" />
    <vehicle id="S_E_82" type="standard_car" route="S_E" depart="507.0" departLane="random" departSpeed="10" />
    <vehicle id="E_W_83" type="standard_car" route="E_W" depart="507.0" departLane="random" departSpeed="10" />
    <vehicle id="E_W_84" type="standard_car" route="E_W" depart="514.0" departLane="random" departSpeed="10" />
    <vehicle id="E_W_85" type="standard_car" route="E_W" depart="518.0" departLane="random" departSpeed="10" />
    <vehicle id="E_S_86" type="standard_car" route="E_S" depart="523.0" departLane="random" departSpeed="10" />
    <vehicle id="N_E_87" type="standard_car" route="N_E" depart="530.0" departLane="random" departSpeed="10" />
    <vehicle id="S_N_88" type="standard_car" route="S_N" depart="533.0" departLane="random" departSpeed="10" />
    <vehicle id="N_S_89" type="standard_car" route="N_S" depart="549.0" departLane="random" departSpeed="10" />
    <vehicle id="W_E_90" type="standard_car" route="W_E" depart="557.0" departLane="random" departSpeed="10" />
    <vehicle id="W_E_91" type="standard_car" route="W_E" depart="559.0" departLane="random" departSpeed="10" />
    <vehicle id="W_E_92" type="standard_car" route="W_E" depart="559.0" departLane="random" departSpeed="10" />
    <vehicle id="E_W_93" type="standard_car" route="E_W" depart="560.0" departLane="random" departSpeed="10" />
    <vehicle id="W_E_94" type="standard_car" route="W_E" depart="561.0" departLane="random" departSpeed="10" />
    <vehicle id="N_S_95" type="standard_car" route="N_S" depart="577.0" departLane="random" departSpeed="10" />
    <vehicle id="N_S_96" type="standard_car" route="N_S" depart="577.0" departLane="random" departSpeed="10" />
    <vehicle id="N_E_97" type="standard_car" route="N_E" depart="582.0" departLane="random" departSpeed="10" />
    <vehicle id="N_S_98" type="standard_car" route="N_S" depart="582.0" departLane="random" departSpeed="10" />
    <vehicle id="W_N_99" type="standard_car" route="W_N" depart="586.0" departLane="random" departSpeed="10" />
    <vehicle id="E_W_100" type="standard_car" route="E_W" depart="588.0" departLane="random" departSpeed="10" />
    <vehicle id="W_E_101" type="standard_car" route="W_E" depart="590.0" departLane="random" departSpeed="10" />
    <vehicle id="W_E_102" type="standard_car" route="W_E" depart="595.0" departLane="random" departSpeed="10" />
    <vehicle id="N_S_103" type="standard_car" route="N_S" depart="595.0" departLane="random" departSpeed="10" />
    <vehicle id="N_S_104" type="standard_car" route="N_S" depart="599.0" departLane="random" departSpeed="10" />
    <vehicle id="E_W_105" type="standard_car" route="E_W" depart="600.0" departLane="random" departSpeed="10" />
    <vehicle id="N_S_106" type="standard_car" route="N_S" depart="603.0" departLane="random" departSpeed="10" />
    <vehicle id="S_N_107" type="standard_car" route="S_N" depart="605.0" departLane="random" departSpeed="10" />
    <vehicle id="S_N_108" type="standard_car" route="S_N" depart="607.0" departLane="random" departSpeed="10" />
    <vehicle id="E_W_109" type="standard_car" route="E_W" depart="609.0" departLane="random" departSpeed="10" />
    <vehicle id="W_S_110" type="standard_car" route="W_S" depart="614.0" departLane="random" departSpeed="10" />
    <vehicle id="N_S_111" type="standard_car" route="N_S" depart="614.0" departLane="random" departSpeed="10" />
    <vehicle id="N_S_112" type="standard_car" route="N_S" depart="621.0" departLane="random" departSpeed="10" />
    <vehicle id="W_E_113" type="standard_car" route="W_E" depart="624.0" departLane="random" departSpeed="10" />
    <vehicle id="S_W_114" type="standard_car" route="S_W" depart="631.0" departLane="random" departSpeed="10" />
    <vehicle id="E_W_115" type="standard_car" route="E_W" depart="633.0" departLane="random" departSpeed="10" />
    <vehicle id="N_S_116" type="standard_car" route="N_S" depart="635.0" departLane="random" departSpeed="10" />
    <vehicle id="E_W_117" type="standard_car" route="E_W" depart="637.0" departLane="random" departSpeed="10" />
    <vehicle id="S_E_118" type="standard_car" route="S_E" depart="640.0" departLane="random" departSpeed="10" />
    <vehicle id="E_N_119" type="standard_car" route="E_N" depart="645.0" departLane="random" departSpeed="10" />
    <vehicle id="N_S_120" type="standard_car" route="N_S" depart="655.0" departLane="random" departSpeed="10" />
    <vehicle id="E_W_121" type="standard_car" route="E_W" depart="655.0" departLane="random" departSpeed="10" />
    <vehicle id="W_S_122" type="standard_car" route="W_S" depart="656.0" departLane="random" departSpeed="10" />
    <vehicle id="E_W_123" type="standard_car" route="E_W" depart="666.0" departLane="random" departSpeed="10" />
    <vehicle id="N_S_124" type="standard_car" route="N_S" depart="667.0" departLane="random" departSpeed="10" />
    <vehicle id="W_E_125" type="standard_car" route="W_E" depart="669.0" departLane="random" departSpeed="10" />
    <vehicle id="W_S_126" type="standard_car" route="W_S" depart="675.0" departLane="random" departSpeed="10" />
    <vehicle id="N_S_127" type="standard_car" route="N_S" depart="676.0" departLane="random" departSpeed="10" />
    <vehicle id="W_E_128" type="standard_car" route="W_E" depart="679.0" departLane="random" departSpeed="10" />
    <vehicle id="N_S_129" type="standard_car" route="N_S" depart="680.0" departLane="random" departSpeed="10" />
    <vehicle id="W_E_130" type="standard_car" route="W_E" depart="684.0" departLane="random" departSpeed="10" />
    <vehicle id="S_N_131" type="standard_car" route="S_N" depart="685.0" departLane="random" departSpeed="10" />
    <vehicle id="S_N_132" type="standard_car" route="S_N" depart="686.0" departLane="random" departSpeed="10" />
    <vehicle id="E_W_133" type="standard_car" route="E_W" depart="691.0" departLane="random" departSpeed="10" />
    <vehicle id="E_S_134" type="standard_car" route="E_S" depart="692.0" departLane="random" departSpeed="10" />
    <vehicle id="E_S_135" type="standard_car" route="E_S" depart="692.0" departLane="random" departSpeed="10" />
    <vehicle id="E_W_136" type="standard_car" route="E_W" depart="694.0" departLane="random" departSpeed="10" />
    <vehicle id="S_N_137" type="standard_car" route="S_N" depart="696.0" departLane="random" departSpeed="10" />
    <vehicle id="E_W_138" type="standard_car" route="E_W" depart="704.0" departLane="random" departSpeed="10" />
    <vehicle id="E_W_139" type="standard_car" route="E_W" depart="705.0" departLane="random" departSpeed="10" />
    <vehicle id="N_E_140" type="standard_car" route="N_E" depart="706.0" departLane="random" departSpeed="10" />
    <vehicle id="E_N_141" type="standard_car" route="E_N" depart="706.0" departLane="random" departSpeed="10" />
    <vehicle id="N_S_142" type="standard_car" route="N_S" depart="714.0" departLane="random" departSpeed="10" />
    <vehicle id="N_S_143" type="standard_car" route="N_S" depart="716.0" departLane="random" departSpeed="10" />
    <vehicle id="E_W_144" type="standard_car" route="E_W" depart="718.0" departLane="random" departSpeed="10" />
    <vehicle id="S_N_145" type="standard_car" route="S_N" depart="718.0" departLane="random" departSpeed="10" />
    <vehicle id="E_N_146" type="standard_car" route="E_N" depart="718.0" departLane="random" departSpeed="10" />
    <vehicle id="E_N_147" type="standard_car" route="E_N" depart="723.0" departLane="random" departSpeed="10" />
    <vehicle id="E_W_148" type="standard_car" route="E_W" depart="724.0" departLane="random" departSpeed="10" />
    <vehicle id="S_N_149" type="standard_car" route="S_N" depart="724.0" departLane="random" departSpeed="10" />
    <vehicle id="N_S_150" type="standard_car" route="N_S" depart="729.0" departLane="random" departSpeed="10" />
    <vehicle id="N_W_151" type="standard_car" route="N_W" depart="731.0" departLane="random" departSpeed="10" />
    <vehicle id="N_S_152" type="standard_car" route="N_S" depart="732.0" departLane="random" departSpeed="10" />
    <vehicle id="W_E_153" type="standard_car" route="W_E" depart="737.0" departLane="random" departSpeed="10" />
    <vehicle id="E_N_154" type="standard_car" route="E_N" depart="737.0" departLane="random" departSpeed="10" />
    <vehicle id="S_E_155" type="standard_car" route="S_E" depart="739.0" departLane="random" departSpeed="10" />
    <vehicle id="S_W_156" type="standard_car" route="S_W" depart="740.0" departLane="random" departSpeed="10" />
    <vehicle id="S_N_157" type="standard_car" route="S_N" depart="740.0" departLane="random" departSpeed="10" />
    <vehicle id="S_N_158" type="standard_car" route="S_N" depart="746.0" departLane="random" departSpeed="10" />
    <vehicle id="N_S_159" type="standard_car" route="N_S" depart="752.0" departLane="random" departSpeed="10" />
    <vehicle id="N_S_160" type="standard_car" route="N_S" depart="752.0" departLane="random" departSpeed="10" />
    <vehicle id="S_N_161" type="standard_car" route="S_N" depart="752.0" departLane="random" departSpeed="10" />
    <vehicle id="E_W_162" type="standard_car" route="E_W" depart="754.0" departLane="random" departSpeed="10" />
    <vehicle id="N_W_163" type="standard_car" route="N_W" depart="754.0" departLane="random" departSpeed="10" />
    <vehicle id="W_E_164" type="standard_car" route="W_E" depart="755.0" departLane="random" departSpeed="10" />
    <vehicle id="S_N_165" type="standard_car" route="S_N" depart="756.0" departLane="random" departSpeed="10" />
    <vehicle id="E_W_166" type="standard_car" route="E_W" depart="756.0" departLane="random" departSpeed="10" />
    <vehicle id="E_S_167" type="standard_car" route="E_S" depart="762.0" departLane="random" departSpeed="10" />
    <vehicle id="N_S_168" type="standard_car" route="N_S" depart="762.0" departLane="random" departSpeed="10" />
    <vehicle id="W_E_169" type="standard_car" route="W_E" depart="764.0" departLane="random" departSpeed="10" />
    <vehicle id="E_W_170" type="standard_car" route="E_W" depart="764.0" departLane="random" departSpeed="10" />
    <vehicle id="S_N_171" type="standard_car" route="S_N" depart="766.0" departLane="random" departSpeed="10" />
    <vehicle id="N_S_172" type="standard_car" route="N_S" depart="766.0" departLane="random" departSpeed="10" />
    <vehicle id="N_S_173" type="standard_car" route="N_S" depart="773.0" departLane="random" departSpeed="10" />
    <vehicle id="N_S_174" type="standard_car" route="N_S" depart="775.0" departLane="random" departSpeed="10" />
    <vehicle id="E_W_175" type="standard_car" route="E_W" depart="776.0" departLane="random" departSpeed="10" />
    <vehicle id="E_N_176" type="standard_car" route="E_N" depart="785.0" departLane="random" departSpeed="10" />
    <vehicle id="W_E_177" type="standard_car" route="W_E" depart="786.0" departLane="random" departSpeed="10" />
    <vehicle id="E_W_178" type="standard_car" route="E_W" depart="799.0" departLane="random" departSpeed="10" />
    <vehicle id="W_E_179" type="standard_car" route="W_E" depart="799.0" departLane="random" departSpeed="10" />
    <vehicle id="N_S_180" type="standard_car" route="N_S" depart="803.0" departLane="random" departSpeed="10" />
    <vehicle id="N_W_181" type="standard_car" route="N_W" depart="804.0" departLane="random" departSpeed="10" />
    <vehicle id="N_S_182" type="standard_car" route="N_S" depart="805.0" departLane="random" departSpeed="10" />
    <vehicle id="S_E_183" type="standard_car" route="S_E" depart="807.0" departLane="random" departSpeed="10" />
    <vehicle id="S_N_184" type="standard_car" route="S_N" depart="818.0" departLane="random" departSpeed="10" />
    <vehicle id="E_N_185" type="standard_car" route="E_N" depart="820.0" departLane="random" departSpeed="10" />
    <vehicle id="W_E_186" type="standard_car" route="W_E" depart="822.0" departLane="random" departSpeed="10" />
    <vehicle id="W_E_187" type="standard_car" route="W_E" depart="822.0" departLane="random" departSpeed="10" />
    <vehicle id="E_W_188" type="standard_car" route="E_W" depart="822.0" departLane="random" departSpeed="10" />
    <vehicle id="S_N_189" type="standard_car" route="S_N" depart="832.0" departLane="random" departSpeed="10" />
    <vehicle id="W_E_190" type="standard_car" route="W_E" depart="832.0" departLane="random" departSpeed="10" />
    <vehicle id="N_E_191" type="standard_car" route="N_E" depart="837.0" departLane="random" departSpeed="10" />
    <vehicle id="W_E_192" type="standard_car" route="W_E" depart="840.0" departLane="random" departSpeed="10" />
    <vehicle id="E_W_193" type="standard_car" route="E_W" depart="843.0" departLane="random" departSpeed="10" />
    <vehicle id="E_S_194" type="standard_car" route="E_S" depart="844.0" departLane="random" departSpeed="10" />
    <vehicle id="S_N_195" type="standard_car" route="S_N" depart="846.0" departLane="random" departSpeed="10" />
    <vehicle id="E_W_196" type="standard_car" route="E_W" depart="853.0" departLane="random" departSpeed="10" />
    <vehicle id="N_S_197" type="standard_car" route="N_S" depart="854.0" departLane="random" departSpeed="10" />
    <vehicle id="N_S_198" type="standard_car" route="N_S" depart="856.0" departLane="random" departSpeed="10" />
    <vehicle id="E_W_199" type="standard_car" route="E_W" depart="860.0" departLane="random" departSpeed="10" />
    <vehicle id="E_W_200" type="standard_car" route="E_W" depart="860.0" departLane="random" departSpeed="10" />
    <vehicle id="E_W_201" type="standard_car" route="E_W" depart="860.0" departLane="random" departSpeed="10" />
    <vehicle id="N_S_202" type="standard_car" route="N_S" depart="862.0" departLane="random" departSpeed="10" />
    <vehicle id="E_W_203" type="standard_car" route="E_W" depart="865.0" departLane="random" departSpeed="10" />
    <vehicle id="S_N_204" type="standard_car" route="S_N" depart="867.0" departLane="random" departSpeed="10" />
    <vehicle id="S_W_205" type="standard_car" route="S_W" depart="870.0" departLane="random" departSpeed="10" />
    <vehicle id="N_E_206" type="standard_car" route="N_E" depart="873.0" departLane="random" departSpeed="10" />
    <vehicle id="E_S_207" type="standard_car" route="E_S" depart="879.0" departLane="random" departSpeed="10" />
    <vehicle id="W_E_208" type="standard_car" route="W_E" depart="881.0" departLane="random" departSpeed="10" />
    <vehicle id="N_S_209" type="standard_car" route="N_S" depart="882.0" departLane="random" departSpeed="10" />
    <vehicle id="S_N_210" type="standard_car" route="S_N" depart="882.0" departLane="random" departSpeed="10" />
    <vehicle id="S_N_211" type="standard_car" route="S_N" depart="885.0" departLane="random" departSpeed="10" />
    <vehicle id="S_N_212" type="standard_car" route="S_N" depart="887.0" departLane="random" departSpeed="10" />
    <vehicle id="W_N_213" type="standard_car" route="W_N" depart="890.0" departLane="random" departSpeed="10" />
    <vehicle id="E_W_214" type="standard_car" route="E_W" depart="895.0" departLane="random" departSpeed="10" />
    <vehicle id="E_W_215" type="standard_car" route="E_W" depart="904.0" departLane="random" departSpeed="10" />
    <vehicle id="E_W_216" type="standard_car" route="E_W" depart="906.0" departLane="random" departSpeed="10" />
    <vehicle id="W_E_217" type="standard_car" route="W_E" depart="907.0" departLane="random" departSpeed="10" />
    <vehicle id="W_E_218" type="standard_car" route="W_E" depart="907.0" departLane="random" departSpeed="10" />
    <vehicle id="N_S_219" type="standard_car" route="N_S" depart="908.0" departLane="random" departSpeed="10" />
    <vehicle id="N_E_220" type="standard_car" route="N_E" depart="908.0" departLane="random" departSpeed="10" />
    <vehicle id="W_S_221" type="standard_car" route="W_S" depart="909.0" departLane="random" departSpeed="10" />
    <vehicle id="W_E_222" type="standard_car" route="W_E" depart="912.0" departLane="random" departSpeed="10" />
    <vehicle id="E_W_223" type="standard_car" route="E_W" depart="918.0" departLane="random" departSpeed="10" />
    <vehicle id="W_E_224" type="standard_car" route="W_E" depart="921.0" departLane="random" departSpeed="10" />
    <vehicle id="S_W_225" type="standard_car" route="S_W" depart="921.0" departLane="random" departSpeed="10" />
    <vehicle id="W_E_226" type="standard_car" route="W_E" depart="921.0" departLane="random" departSpeed="10" />
    <vehicle id="W_N_227" type="standard_car" route="W_N" depart="921.0" departLane="random" departSpeed="10" />
    <vehicle id="S_E_228" type="standard_car" route="S_E" depart="926.0" departLane="random" departSpeed="10" />
    <vehicle id="E_W_229" type="standard_car" route="E_W" depart="929.0" departLane="random" departSpeed="10" />
    <vehicle id="N_S_230" type="standard_car" route="N_S" depart="929.0" departLane="random" departSpeed="10" />
    <vehicle id="E_W_231" type="standard_car" route="E_W" depart="932.0" departLane="random" departSpeed="10" />
    <vehicle id="N_S_232" type="standard_car" route="N_S" depart="933.0" departLane="random" departSpeed="10" />
    <vehicle id="E_W_233" type="standard_car" route="E_W" depart="933.0" departLane="random" departSpeed="10" />
    <vehicle id="W_E_234" type="standard_car" route="W_E" depart="937.0" departLane="random" departSpeed="10" />
    <vehicle id="N_W_235" type="standard_car" route="N_W" depart="938.0" departLane="random" departSpeed="10" />
    <vehicle id="N_S_236" type="standard_car" route="N_S" depart="938.0" departLane="random" departSpeed="10" />
    <vehicle id="S_E_237" type="standard_car" route="S_E" depart="938.0" departLane="random" departSpeed="10" />
    <vehicle id="S_N_238" type="standard_car" route="S_N" depart="940.0" departLane="random" departSpeed="10" />
    <vehicle id="W_E_239" type="standard_car" route="W_E" depart="943.0" departLane="random" departSpeed="10" />
    <vehicle id="E_W_240" type="standard_car" route="E_W" depart="943.0" departLane="random" departSpeed="10" />
    <vehicle id="S_N_241" type="standard_car" route="S_N" depart="947.0" departLane="random" departSpeed="10" />
    <vehicle id="N_S_242" type="standard_car" route="N_S" depart="947.0" departLane="random" departSpeed="10" />
    <vehicle id="S_N_243" type="standard_car" route="S_N" depart="948.0" departLane="random" departSpeed="10" />
    <vehicle id="S_N_244" type="standard_car" route="S_N" depart="948.0" departLane="random" departSpeed="10" />
    <vehicle id="S_E_245" type="standard_car" route="S_E" depart="948.0" departLane="random" departSpeed="10" />
    <vehicle id="S_W_246" type="standard_car" route="S_W" depart="954.0" departLane="random" departSpeed="10" />
    <vehicle id="N_S_247" type="standard_car" route="N_S" depart="955.0" departLane="random" departSpeed="10" />
    <vehicle id="E_W_248" type="standard_car" route="E_W" depart="957.0" departLane="random" departSpeed="10" />
    <vehicle id="S_N_249" type="standard_car" route="S_N" depart="959.0" departLane="random" departSpeed="10" />
    <vehicle id="W_S_250" type="standard_car" route="W_S" depart="962.0" departLane="random" departSpeed="10" />
    <vehicle id="N_E_251" type="standard_car" route="N_E" depart="965.0" departLane="random" departSpeed="10" />
    <vehicle id="E_W_252" type="standard_car" route="E_W" depart="969.0" departLane="random" departSpeed="10" />
    <vehicle id="E_N_253" type="standard_car" route="E_N" depart="974.0" departLane="random" departSpeed="10" />
    <vehicle id="E_W_254" type="standard_car" route="E_W" depart="974.0" departLane="random" departSpeed="10" />
    <vehicle id="S_N_255" type="standard_car" route="S_N" depart="974.0" departLane="random" departSpeed="10" />
    <vehicle id="W_E_256" type="standard_car" route="W_E" depart="976.0" departLane="random" departSpeed="10" />
    <vehicle id="W_S_257" type="standard_car" route="W_S" depart="979.0" departLane="random" departSpeed="10" />
    <vehicle id="N_S_258" type="standard_car" route="N_S" depart="980.0" departLane="random" departSpeed="10" />
    <vehicle id="E_W_259" type="standard_car" route="E_W" depart="984.0" departLane="random" departSpeed="10" />