<?xml version="1.0" encoding="UTF-8"?>

<!-- generated on Mon Apr 20 11:09:49 2020 by Eclipse SUMO polyconvert Version 1.1.0
<configuration xmlns:xsi="http://www.w3.org/2001/XMLSchema-instance" xsi:noNamespaceSchemaLocation="http://sumo.dlr.de/xsd/polyconvertConfiguration.xsd">

    <input>
        <net-file value="osm.net.xml"/>
        <osm-files value="osm_bbox.osm.xml"/>
        <osm.keep-full-type value="true"/>
        <type-file value="/usr/share/sumo/data/typemap/osmPolyconvert.typ.xml"/>
    </input>

    <output>
        <output-file value="osm.poly.xml"/>
    </output>

    <processing>
        <poi-layer-offset value="5"/>
    </processing>

    <report>
        <verbose value="true"/>
    </report>

</configuration>
-->

<additional xmlns:xsi="http://www.w3.org/2001/XMLSchema-instance" xsi:noNamespaceSchemaLocation="http://sumo.dlr.de/xsd/additional_file.xsd">
    <location netOffset="-233767.83,-1625780.68" convBoundary="-164.08,-359.42,1451.83,1418.03" origBoundary="-17.473795,14.689389,-17.458906,14.705521" projParameter="+proj=utm +zone=28 +ellps=WGS84 +datum=WGS84 +units=m +no_defs"/>

    <poly id="191430119" type="building.yes" color="255,230,230" fill="1" layer="-1.00" shape="686.662552,429.932512 691.343592,435.261614 700.726467,427.110877 696.045429,421.781773 686.662552,429.932512"/>
    <poly id="191430121" type="building.yes" color="255,230,230" fill="1" layer="-1.00" shape="695.535223,447.083355 696.698432,474.647171 716.047613,473.284451 715.711922,442.556516 703.864455,442.110283 703.535934,438.670958 698.053513,439.882182 696.243967,442.913118 695.535223,447.083355"/>
    <poly id="191430121#1" type="shop.beverages" color="237,199,255" fill="1" layer="-1.00" shape="695.535223,447.083355 696.698432,474.647171 716.047613,473.284451 715.711922,442.556516 703.864455,442.110283 703.535934,438.670958 698.053513,439.882182 696.243967,442.913118 695.535223,447.083355"/>
    <poly id="191432326" type="landuse.residential" color="235,235,227" fill="1" layer="-3.00" shape="716.538164,492.541696 716.129861,499.553759 728.241762,514.344423 767.540582,550.812973 792.978414,578.100562 799.836049,577.505351 812.000342,572.435072 857.398771,528.056026 826.986763,496.217384 806.493381,471.743002 786.756784,490.911175 780.027446,483.523185 802.610748,460.582104 809.167703,452.185514 807.709510,444.961361 797.674909,431.919248 757.050873,384.627124 746.966760,393.693270 738.295996,389.105177 715.818151,408.879012 716.538164,492.541696"/>
    <poly id="209559818" type="building.yes" color="255,230,230" fill="1" layer="-1.00" shape="802.318848,386.490738 781.403444,402.317427 800.883598,427.743855 821.798987,411.917181 802.318848,386.490738"/>
    <poly id="209559819" type="building.yes" color="255,230,230" fill="1" layer="-1.00" shape="763.792776,379.350372 781.403444,402.317427 802.318848,386.490738 784.718848,363.512482 763.792776,379.350372"/>
    <poly id="211537737" type="building.yes" color="255,230,230" fill="1" layer="-1.00" shape="554.342408,282.668882 558.228546,279.349547 559.887455,281.268748 562.161391,279.317632 560.677053,277.595792 564.114652,274.646686 565.347908,276.072368 568.604033,273.280233 578.022268,284.137066 565.168474,295.148752 554.342408,282.668882"/>
    <poly id="211541770" type="building.yes" color="255,230,230" fill="1" layer="-1.00" shape="663.341879,287.743642 668.049695,293.548483 678.902928,285.835571 674.466787,279.252828 663.341879,287.743642"/>
    <poly id="211683013" type="building.yes" color="255,230,230" fill="1" layer="-1.00" shape="509.228307,531.461760 497.247604,519.813766 509.482364,510.347580 520.962117,520.528684 509.228307,531.461760"/>
    <poly id="211686443" type="building.yes" color="255,230,230" fill="1" layer="-1.00" shape="520.260562,489.871131 533.957420,478.119530 521.363664,463.622041 507.666802,475.373648 520.260562,489.871131"/>
    <poly id="211686444" type="building.yes" color="255,230,230" fill="1" layer="-1.00" shape="559.074654,467.173018 563.866791,462.947067 556.925277,453.900874 550.565260,459.605269 559.074654,467.173018"/>
    <poly id="211686446" type="building.yes" color="255,230,230" fill="1" layer="-1.00" shape="557.785365,485.265196 564.636406,479.134757 554.045502,467.460473 547.205235,473.590797 557.785365,485.265196"/>
    <poly id="211686448" type="building.yes" color="255,230,230" fill="1" layer="-1.00" shape="536.159681,525.798137 542.602605,519.793925 528.506135,504.847904 530.404873,503.078010 527.363212,499.856543 519.021548,507.630653 536.159681,525.798137"/>
    <poly id="211687423" type="building.yes" color="255,230,230" fill="1" layer="-1.00" shape="529.450882,428.628416 517.047409,414.782002 525.158726,407.619292 537.753118,420.201588 529.450882,428.628416"/>
    <poly id="211687426" type="building.yes" color="255,230,230" fill="1" layer="-1.00" shape="529.450882,428.628416 525.113208,433.026533 534.763257,442.419506 547.403165,429.594566 537.753118,420.201588 529.450882,428.628416"/>
    <poly id="211687427" type="building.yes" color="255,230,230" fill="1" layer="-1.00" shape="556.925277,453.900874 550.777427,447.469709 556.867601,441.723983 550.719748,435.292818 538.422091,446.896262 550.565260,459.605269 556.925277,453.900874"/>
    <poly id="211690749" type="amenity.place_of_worship" color="237,199,199" fill="1" layer="-1.00" shape="603.980074,308.673376 577.692805,306.248397 577.794880,303.756425 579.270271,303.673878 579.710502,297.613519 578.750484,296.539105 579.909732,287.249381 606.424487,290.767856 606.458702,295.870969 608.584439,296.135571 608.217557,302.992200 605.575368,302.799665 603.980074,308.673376"/>
    <poly id="211690749#1" type="building.yes" color="255,230,230" fill="1" layer="-1.00" shape="603.980074,308.673376 577.692805,306.248397 577.794880,303.756425 579.270271,303.673878 579.710502,297.613519 578.750484,296.539105 579.909732,287.249381 606.424487,290.767856 606.458702,295.870969 608.584439,296.135571 608.217557,302.992200 605.575368,302.799665 603.980074,308.673376"/>
    <poly id="216596746" type="building.yes" color="255,230,230" fill="1" layer="-1.00" shape="867.433465,498.676185 876.647144,508.583272 892.874250,493.671337 883.649800,483.764362 867.433465,498.676185"/>
    <poly id="216596749" type="building.yes" color="255,230,230" fill="1" layer="-1.00" shape="835.250363,449.708736 843.313636,458.864517 858.265592,445.593842 849.251628,436.215958 835.250363,449.708736"/>
    <poly id="216596750" type="building.yes" color="255,230,230" fill="1" layer="-1.00" shape="794.706156,491.610356 806.347860,502.819359 818.096074,492.207337 803.938722,480.549773 794.706156,491.610356"/>
    <poly id="216596751" type="building.yes" color="255,230,230" fill="1" layer="-1.00" shape="850.310903,512.501944 864.676483,528.430449 868.368030,527.028475 871.104414,524.994846 874.105103,521.508102 875.420970,518.659699 878.110270,516.261260 868.827838,505.978528 866.906806,507.682212 861.747394,501.959772 858.086803,505.210172 862.078965,509.627974 860.264710,511.241928 856.457890,507.021372 850.310903,512.501944"/>
    <poly id="216596752" type="building.yes" color="255,230,230" fill="1" layer="-1.00" shape="729.432835,460.617534 729.375051,473.083504 727.059383,473.186294 727.461071,482.337177 729.303024,482.272773 730.094733,494.574477 734.968546,494.864419 734.777011,496.073192 750.819120,495.798317 751.137717,480.572955 752.355260,478.589114 751.109087,475.979027 750.127763,475.912253 749.726164,469.728253 748.415330,468.104144 747.979527,466.680815 747.315311,463.090171 743.596418,462.975808 743.418732,460.520107 740.541459,460.507255 740.676946,459.099827 734.426046,459.013123 734.444668,460.717771 729.432835,460.617534"/>
    <poly id="216596754" type="building.yes" color="255,230,230" fill="1" layer="-1.00" shape="829.650913,420.466392 843.250993,434.377361 852.741431,425.218106 839.141352,411.307132 829.650913,420.466392"/>
    <poly id="216597560" type="building.yes" color="255,230,230" fill="1" layer="-1.00" shape="808.799487,548.712833 794.550049,560.193538 800.609551,566.437517 803.222920,564.980885 805.286989,566.508206 802.911611,569.036072 805.417750,573.547588 819.677957,562.066770 816.444734,557.087165 813.703400,558.666967 812.368125,556.777432 814.377174,554.253567 808.799487,548.712833"/>
    <poly id="216597561" type="building.yes" color="255,230,230" fill="1" layer="-1.00" shape="856.177532,554.372755 845.353902,563.801197 850.503863,569.645511 861.327491,560.217071 856.177532,554.372755"/>
    <poly id="216597562" type="building.yes" color="255,230,230" fill="1" layer="-1.00" shape="857.476853,549.022609 864.035450,556.567464 882.718138,540.554869 876.170198,532.998822 857.476853,549.022609"/>
    <poly id="216597564" type="building.yes" color="255,230,230" fill="1" layer="-1.00" shape="809.146909,503.563722 818.552000,514.221491 825.202117,508.436514 815.797027,497.778742 809.146909,503.563722"/>
    <poly id="216597565" type="building.yes" color="255,230,230" fill="1" layer="-1.00" shape="803.143202,513.282727 794.854013,520.934380 800.916182,527.421881 809.205370,519.770230 803.143202,513.282727"/>
    <poly id="216597566" type="building.yes" color="255,230,230" fill="1" layer="-1.00" shape="820.593976,519.645855 814.891065,524.346656 821.900622,532.727933 827.603532,528.027133 820.593976,519.645855"/>
    <poly id="216597567" type="building.yes" color="255,230,230" fill="1" layer="-1.00" shape="822.636877,520.221350 833.468761,532.269489 840.939321,525.634201 830.118213,513.585941 822.636877,520.221350"/>
    <poly id="216597568" type="building.yes" color="255,230,230" fill="1" layer="-1.00" shape="866.009606,569.597970 857.942957,575.918718 868.038738,588.650201 876.105385,582.329457 866.009606,569.597970"/>
    <poly id="217117544" type="building.yes" color="255,230,230" fill="1" layer="-1.00" shape="648.831489,363.125996 638.334225,370.868251 654.705305,386.885458 661.490772,381.652480 648.831489,363.125996"/>
    <poly id="217117546" type="building.yes" color="255,230,230" fill="1" layer="-1.00" shape="674.666421,373.471365 667.889657,379.501317 681.975894,396.473422 689.360504,390.846440 674.666421,373.471365"/>
    <poly id="217117549" type="building.yes" color="255,230,230" fill="1" layer="-1.00" shape="632.047340,345.795918 623.408997,352.067634 633.769766,363.390210 640.957423,356.503332 632.047340,345.795918"/>
    <poly id="217117551" type="building.yes" color="255,230,230" fill="1" layer="-1.00" shape="634.826125,317.070904 624.538854,315.434180 623.217016,323.651841 633.493509,325.288681 634.826125,317.070904"/>
    <poly id="217117554" type="building.yes" color="255,230,230" fill="1" layer="-1.00" shape="682.502939,349.041797 691.485032,359.438466 717.566006,337.067978 712.595617,331.885946 716.242183,328.336776 707.609233,318.334820 703.712311,321.654247 708.339853,327.017151 682.502939,349.041797"/>
    <poly id="217117557" type="building.yes" color="255,230,230" fill="1" layer="-1.00" shape="568.602035,348.028081 538.172728,373.811711 546.326097,383.309616 576.285793,357.940736 579.331090,361.494284 585.801430,356.021178 582.166806,351.787700 576.177087,356.868088 568.602035,348.028081"/>
    <poly id="217117559" type="building.yes" color="255,230,230" fill="1" layer="-1.00" shape="678.494137,292.803358 652.749578,314.406347 661.176871,324.321971 672.847888,314.529942 674.485357,316.460454 677.122729,314.239688 675.354272,312.155621 686.779541,302.554483 678.494137,292.803358"/>
    <poly id="217130786" type="building.yes" color="255,230,230" fill="1" layer="-1.00" shape="513.405883,355.705467 525.031432,346.688784 511.655443,329.642560 500.019114,338.659366 513.405883,355.705467"/>
    <poly id="217130788" type="building.yes" color="255,230,230" fill="1" layer="-1.00" shape="530.256301,315.014392 524.433033,321.521065 527.909067,328.003576 526.909441,330.206458 528.392207,331.784397 527.101668,333.990459 531.810730,338.920696 544.046578,328.557827 530.256301,315.014392"/>
    <poly id="217132071" type="building.yes" color="255,230,230" fill="1" layer="-1.00" shape="728.130438,342.377103 737.455985,333.905972 722.701003,317.859990 713.781754,325.053585 728.130438,342.377103"/>
    <poly id="217132072" type="building.yes" color="255,230,230" fill="1" layer="-1.00" shape="724.735206,345.259299 718.117200,337.216944 706.090380,346.990696 712.708389,355.033048 724.735206,345.259299"/>
    <poly id="217132227" type="building.yes" color="255,230,230" fill="1" layer="-1.00" shape="706.209238,348.993151 703.070543,351.684350 702.350233,350.850864 700.748804,352.218955 702.986124,354.807142 701.822461,355.805126 701.276720,355.169001 698.874577,357.221138 698.165163,356.398603 700.247092,354.626726 699.341317,353.584927 692.508734,359.438353 697.703563,365.437144 710.771160,354.268208 706.209238,348.993151"/>
    <poly id="217132228" type="building.yes" color="255,230,230" fill="1" layer="-1.00" shape="670.873741,334.057668 666.585062,338.012399 686.292538,360.557959 689.093579,358.523604 680.823331,348.185581 682.130207,347.473864 670.873741,334.057668"/>
    <poly id="217132311" type="building.yes" color="255,230,230" fill="1" layer="-1.00" shape="617.966698,457.529042 599.242702,437.220094 590.971576,444.550581 609.263749,464.786749 617.966698,457.529042"/>
    <poly id="217132312" type="building.yes" color="255,230,230" fill="1" layer="-1.00" shape="598.918635,435.175599 577.929786,413.706875 569.637833,421.104020 590.330443,443.074146 598.918635,435.175599"/>
    <poly id="217132579" type="building.yes" color="255,230,230" fill="1" layer="-1.00" shape="672.298736,505.899996 659.530275,491.182951 656.157340,495.116612 654.772521,494.611433 651.639435,495.841280 652.236852,498.248113 650.540764,499.827583 646.792490,496.038161 641.665978,500.234538 648.212549,508.642976 647.798625,510.208436 657.165898,521.342598 662.848940,515.811687 661.914483,514.117046 665.315375,510.769814 665.933986,512.157933 672.298736,505.899996"/>
    <poly id="217132580" type="building.yes" color="255,230,230" fill="1" layer="-1.00" shape="674.121723,466.624207 656.687469,482.490487 687.071003,519.587739 704.674346,505.391271 674.121723,466.624207"/>
    <poly id="217133097" type="building.yes" color="255,230,230" fill="1" layer="-1.00" shape="755.532301,450.800770 746.152067,451.301768 746.250127,460.278840 747.403602,460.321592 747.942247,466.227334 755.767791,466.440756 755.532301,450.800770"/>
    <poly id="217133633" type="building.yes" color="255,230,230" fill="1" layer="-1.00" shape="758.249003,428.220572 777.719029,411.280455 760.141369,391.335277 758.503975,393.356914 756.790827,393.375626 756.376047,394.863598 751.433992,399.179705 749.369153,399.556513 749.096861,401.264338 747.569888,402.543049 751.770913,407.334953 750.874317,408.119678 752.947470,410.477182 753.684020,409.838121 756.313564,412.820564 758.501785,410.914685 762.146053,415.048443 758.911843,417.873524 760.243018,419.386708 754.713811,424.207398 758.249003,428.220572"/>
    <poly id="217134115" type="building.yes" color="255,230,230" fill="1" layer="-1.00" shape="741.859958,432.252110 726.904339,432.360128 726.908374,438.648105 723.483895,438.851572 723.282828,447.079121 740.581355,446.403053 740.206127,441.646854 741.703783,441.630495 741.304091,437.594143 742.386861,438.069416 741.859958,432.252110"/>
    <poly id="217134116" type="building.yes" color="255,230,230" fill="1" layer="-1.00" shape="741.282339,425.737918 732.400879,425.536033 732.282536,430.485821 741.163994,430.687707 741.282339,425.737918"/>
    <poly id="217134117" type="building.yes" color="255,230,230" fill="1" layer="-1.00" shape="711.475257,441.407190 716.463852,441.352692 716.371829,432.929076 711.383232,432.983574 711.475257,441.407190"/>
    <poly id="217134118" type="building.yes" color="255,230,230" fill="1" layer="-1.00" shape="721.405033,437.944363 725.758779,437.974295 725.845656,432.117072 721.427382,432.098915 721.405033,437.944363"/>
    <poly id="217134119" type="building.yes" color="255,230,230" fill="1" layer="-1.00" shape="747.975395,406.125449 741.616536,411.940475 745.967558,416.653246 751.349670,412.177344 751.297760,410.384497 747.975395,406.125449"/>
    <poly id="217134333" type="building.yes" color="255,230,230" fill="1" layer="-1.00" shape="770.028625,499.407799 774.777202,495.138088 770.843244,491.118198 775.488552,487.259223 776.687812,485.574485 774.492990,483.915748 772.795686,485.384516 772.411218,483.728147 775.161926,479.059581 774.722619,477.315247 771.476882,474.151336 770.478560,477.461237 766.818300,474.822165 768.403401,471.959744 763.601942,474.348055 764.133747,475.681772 759.123664,480.673921 761.984906,484.152003 758.931576,486.764772 770.028625,499.407799"/>
    <poly id="217134334" type="building.yes" color="255,230,230" fill="1" layer="-1.00" shape="773.581463,462.615073 756.826647,462.753798 756.682144,468.268465 759.254587,467.996816 759.115714,469.094308 757.295430,469.169543 757.603752,470.760322 762.612921,470.617043 762.699494,469.664038 774.087885,469.517507 774.114327,466.018954 773.581463,462.615073"/>
    <poly id="217134643" type="building.yes" color="255,230,230" fill="1" layer="-1.00" shape="789.855144,464.795340 799.953153,456.016889 801.743138,458.100727 805.143451,454.698174 805.206664,453.579367 807.528393,453.044771 808.378175,449.946834 805.852639,446.620067 800.561758,446.622496 795.765597,442.589878 790.976325,447.081436 794.244336,450.311529 784.237009,458.513328 789.855144,464.795340"/>
    <poly id="217134644" type="building.yes" color="255,230,230" fill="1" layer="-1.00" shape="779.769081,476.640183 789.386703,468.276579 779.992358,457.618699 774.198511,462.874025 774.759985,471.857103 779.769081,476.640183"/>
    <poly id="217134768" type="building.yes" color="255,230,230" fill="1" layer="-1.00" shape="731.604364,514.396252 738.351346,515.507086 739.360302,513.171267 741.486016,513.435878 743.056995,516.186331 745.377846,517.544786 749.602068,515.583452 750.703655,511.862815 750.405218,504.271740 739.356680,502.975412 739.281596,504.979986 737.316034,505.566051 734.225128,502.765779 731.604364,514.396252"/>
    <poly id="217134862" type="building.yes" color="255,230,230" fill="1" layer="-1.00" shape="714.597278,474.673033 703.521949,474.871524 703.820653,481.499468 707.984079,481.863589 708.379907,485.545729 712.064055,485.439056 712.318968,489.045242 715.174811,489.069395 714.597278,474.673033"/>
    <poly id="217134956" type="building.yes" color="255,230,230" fill="1" layer="-1.00" shape="732.516122,501.190302 721.643745,498.264700 719.337862,500.249363 718.702300,499.282105 720.498264,497.967241 719.136338,496.598312 716.826465,498.217693 723.448065,506.592116 725.784904,507.441154 727.219179,512.473615 730.133232,513.880941 732.516122,501.190302"/>
    <poly id="217135301" type="building.yes" color="255,230,230" fill="1" layer="-1.00" shape="675.797831,512.526183 665.560542,521.372642 671.457254,528.492941 668.266169,531.317568 673.600550,538.255813 678.208059,534.884328 677.189836,532.426740 684.231671,526.991692 675.797831,512.526183"/>
    <poly id="217136008" type="building.yes" color="255,230,230" fill="1" layer="-1.00" shape="573.553824,537.832567 584.839576,550.971631 599.825840,539.870200 595.488742,532.489318 598.691194,530.705181 605.083068,537.775773 612.482517,530.554446 607.786229,523.830646 604.962086,526.706624 603.121493,522.951710 613.473774,513.782920 608.754960,507.956074 573.553824,537.832567"/>
    <poly id="217136009" type="building.yes" color="255,230,230" fill="1" layer="-1.00" shape="637.767821,568.515506 655.820956,568.860670 656.006750,559.238403 637.964383,558.893120 637.767821,568.515506"/>
    <poly id="217136010" type="building.yes" color="255,230,230" fill="1" layer="-1.00" shape="628.579118,572.734142 596.772807,574.055976 596.898783,581.637873 628.714157,581.146223 628.579118,572.734142"/>
    <poly id="217136011" type="building.yes" color="255,230,230" fill="1" layer="-1.00" shape="586.744368,568.486440 634.986682,568.424125 634.846573,558.561868 586.495285,558.514666 586.744368,568.486440"/>
    <poly id="217136012" type="building.yes" color="255,230,230" fill="1" layer="-1.00" shape="665.387236,579.472345 669.426565,579.328571 659.209276,562.391702 656.352698,564.271686 665.387236,579.472345"/>
    <poly id="217136013" type="building.yes" color="255,230,230" fill="1" layer="-1.00" shape="652.920252,577.549475 658.420784,577.998607 658.083806,571.813898 651.971677,570.618657 652.920252,577.549475"/>
    <poly id="217136014" type="building.yes" color="255,230,230" fill="1" layer="-1.00" shape="587.029568,571.904098 579.552096,571.985834 579.614168,577.664308 587.091638,577.582572 587.029568,571.904098"/>
    <poly id="217136015" type="building.yes" color="255,230,230" fill="1" layer="-1.00" shape="665.891587,565.473763 662.839980,567.256244 667.396410,574.988991 670.448016,573.206512 665.891587,565.473763"/>
    <poly id="217136016" type="building.yes" color="255,230,230" fill="1" layer="-1.00" shape="648.807488,571.959551 630.411984,572.824815 630.852715,579.628338 649.033208,578.809704 648.807488,571.959551"/>
    <poly id="217136017" type="building.yes" color="255,230,230" fill="1" layer="-1.00" shape="577.907913,559.582735 568.075192,559.103483 568.313108,575.939074 572.845765,575.579552 572.446979,577.543385 578.286127,577.424204 577.907913,559.582735"/>
    <poly id="217136018" type="building.yes" color="255,230,230" fill="1" layer="-1.00" shape="643.040404,554.021994 650.129687,547.999680 623.836008,517.356138 621.526013,519.949732 617.933297,516.590363 613.508472,519.915582 643.040404,554.021994"/>
    <poly id="217136201" type="building.yes" color="255,230,230" fill="1" layer="-1.00" shape="655.205605,554.951817 653.493729,549.169599 649.172445,549.150399 649.495143,555.014220 655.205605,554.951817"/>
    <poly id="217136969" type="building.yes" color="255,230,230" fill="1" layer="-1.00" shape="739.960413,560.214169 732.129795,551.642614 715.707785,566.457176 723.527511,575.017774 739.960413,560.214169"/>
    <poly id="217136970" type="building.yes" color="255,230,230" fill="1" layer="-1.00" shape="706.821394,546.073907 711.757470,542.200668 712.078395,542.972094 717.759869,537.297298 716.823867,533.488215 718.318408,530.228241 716.154832,527.484263 703.785371,539.420518 704.074665,543.214526 706.821394,546.073907"/>
    <poly id="217138082" type="building.yes" color="255,230,230" fill="1" layer="-1.00" shape="654.584527,302.850874 650.136013,298.094897 640.129126,307.326300 644.577762,312.093345 654.584527,302.850874"/>
    <poly id="217138083" type="building.yes" color="255,230,230" fill="1" layer="-1.00" shape="665.036938,292.972523 661.267344,288.220197 652.181136,296.899082 655.809452,301.542246 665.036938,292.972523"/>
    <poly id="217138084" type="building.yes" color="255,230,230" fill="1" layer="-1.00" shape="603.943389,395.045581 593.436852,399.964991 597.883775,406.547602 599.371878,405.656771 602.583615,410.636593 610.230907,405.383108 603.943389,395.045581"/>
    <poly id="217138332" type="building.yes" color="255,230,230" fill="1" layer="-1.00" shape="699.711001,308.513038 693.858888,314.355750 698.009342,318.461832 703.861455,312.619121 699.711001,308.513038"/>
    <poly id="217138333" type="building.yes" color="255,230,230" fill="1" layer="-1.00" shape="698.415879,279.721845 693.481919,283.794323 707.927125,301.072499 712.861083,297.000024 698.415879,279.721845"/>
    <poly id="217138334" type="building.yes" color="255,230,230" fill="1" layer="-1.00" shape="711.228159,299.431222 707.112599,302.465204 710.513548,307.011224 714.629229,303.988311 711.228159,299.431222"/>
    <poly id="217138335" type="building.yes" color="255,230,230" fill="1" layer="-1.00" shape="721.593520,309.203917 718.008211,312.442444 713.895068,306.819298 717.029538,303.740682 721.593520,309.203917"/>
    <poly id="217138336" type="building.yes" color="255,230,230" fill="1" layer="-1.00" shape="657.706252,346.932569 655.242356,350.236348 655.482167,351.473620 654.034366,353.094657 666.572522,366.452560 671.724862,361.658107 657.706252,346.932569"/>
    <poly id="217138687" type="building.yes" color="255,230,230" fill="1" layer="-1.00" shape="599.895116,435.784873 605.606772,441.744786 616.831120,430.529507 624.969931,423.908987 612.618965,406.973299 609.828225,408.963270 616.075084,416.566837 614.872063,419.878984 609.811515,424.196419 612.979916,428.169303 607.536690,432.966952 605.906608,430.726391 599.895116,435.784873"/>
    <poly id="217138688" type="building.yes" color="255,230,230" fill="1" layer="-1.00" shape="579.679974,397.358800 570.630759,406.458002 574.860034,410.873175 583.807197,401.310131 579.679974,397.358800"/>
    <poly id="217138689" type="building.yes" color="255,230,230" fill="1" layer="-1.00" shape="619.237458,431.820595 614.729323,435.412412 618.716698,440.372688 623.235486,436.769685 619.237458,431.820595"/>
    <poly id="217138690" type="building.yes" color="255,230,230" fill="1" layer="-1.00" shape="575.678174,393.051843 566.180064,401.502795 570.754004,405.903131 579.366908,397.306869 575.678174,393.051843"/>
    <poly id="217138691" type="building.yes" color="255,230,230" fill="1" layer="-1.00" shape="613.023426,437.080555 611.281334,438.394839 610.107864,440.466771 607.394720,443.640437 613.960462,449.856707 620.524372,443.087339 613.023426,437.080555"/>
    <poly id="217139153" type="building.yes" color="255,230,230" fill="1" layer="-1.00" shape="573.769864,342.679912 570.202788,338.711389 563.798425,344.305553 567.131251,347.545985 573.769864,342.679912"/>
    <poly id="217139154" type="building.yes" color="255,230,230" fill="1" layer="-1.00" shape="545.583796,353.848127 556.612642,344.461589 548.006493,334.946488 539.441764,342.036647 540.183993,342.903101 537.356565,345.480217 545.583796,353.848127"/>
    <poly id="217139155" type="building.yes" color="255,230,230" fill="1" layer="-1.00" shape="569.305820,393.686088 589.843540,376.833768 579.470760,366.385906 562.834979,385.310045 569.305820,393.686088"/>
    <poly id="217139305" type="building.yes" color="255,230,230" fill="1" layer="-1.00" shape="515.690563,357.695317 530.268083,374.252376 534.386280,370.476607 520.635014,353.600540 515.690563,357.695317"/>
    <poly id="217139306" type="building.yes" color="255,230,230" fill="1" layer="-1.00" shape="523.099413,532.693912 520.067660,535.306480 522.209833,538.061749 525.184930,535.195180 523.099413,532.693912"/>
    <poly id="217139307" type="building.yes" color="255,230,230" fill="1" layer="-1.00" shape="533.017656,524.238338 529.006387,527.935450 530.833196,530.428476 535.714898,526.511510 533.017656,524.238338"/>
    <poly id="217140434" type="building.yes" color="255,230,230" fill="1" layer="-1.00" shape="673.686018,399.132343 669.335366,403.331302 668.858825,407.056185 670.138443,407.794996 676.668836,401.900580 673.686018,399.132343"/>
    <poly id="217140791" type="building.yes" color="255,230,230" fill="1" layer="-1.00" shape="786.390615,554.072131 781.451026,557.624349 790.656008,567.719699 795.701043,563.955993 786.390615,554.072131"/>
    <poly id="217140792" type="building.yes" color="255,230,230" fill="1" layer="-1.00" shape="792.140932,568.511623 795.130003,571.855466 799.786433,568.029582 796.578972,564.422434 792.140932,568.511623"/>
    <poly id="217140793" type="building.yes" color="255,230,230" fill="1" layer="-1.00" shape="787.784231,565.249142 784.173904,568.166895 793.115701,577.844442 802.088584,572.609748 799.595985,569.337976 794.761723,572.667631 787.784231,565.249142"/>
    <poly id="217140794" type="building.yes" color="255,230,230" fill="1" layer="-1.00" shape="777.947474,534.802121 771.472077,539.810275 772.771769,541.401295 767.439676,546.507666 778.503287,559.051424 784.620583,553.814703 783.355755,552.455781 785.088308,549.281777 785.852654,543.295382 777.947474,534.802121"/>
    <poly id="217141048" type="building.yes" color="255,230,230" fill="1" layer="-1.00" shape="696.708152,559.369325 690.084041,559.640970 698.902616,571.843903 699.726781,562.458214 696.708152,559.369325"/>
    <poly id="217141049" type="building.yes" color="255,230,230" fill="1" layer="-1.00" shape="690.071704,558.511918 696.071392,557.306106 695.456123,549.319953 694.856345,541.765379 685.795531,528.103792 673.981405,538.594836 690.071704,558.511918"/>
    <poly id="217141050" type="building.yes" color="255,230,230" fill="1" layer="-1.00" shape="701.759673,537.461037 707.709904,531.727950 709.175703,532.741488 714.203312,528.369079 713.860993,524.653144 723.035565,520.124727 708.060895,507.634787 703.511746,509.444692 701.759673,537.461037"/>
    <poly id="217141051" type="building.yes" color="255,230,230" fill="1" layer="-1.00" shape="719.451690,538.286227 701.837955,552.516012 700.542551,568.084168 700.404234,574.163364 709.878589,586.226287 722.713963,576.499034 715.251377,567.093178 713.657166,563.202722 728.064112,548.388033 719.451690,538.286227"/>
    <poly id="217141355" type="building.yes" color="255,230,230" fill="1" layer="-1.00" shape="776.549766,530.156725 788.021944,518.938824 779.839162,510.681073 768.366983,521.898979 776.549766,530.156725"/>
    <poly id="217141356" type="building.school" color="255,230,230" fill="1" layer="-1.00" shape="782.502133,487.127266 769.899922,500.449827 791.357888,520.496534 803.970872,507.173867 782.502133,487.127266"/>
    <poly id="217141357" type="building.yes" color="255,230,230" fill="1" layer="-1.00" shape="764.198501,520.084674 757.841124,526.032531 759.930134,527.869549 756.279797,535.016658 758.057435,536.956711 764.245857,536.258097 772.876294,529.266931 764.198501,520.084674"/>
    <poly id="217141358" type="building.yes" color="255,230,230" fill="1" layer="-1.00" shape="763.044589,499.284816 759.123621,501.386750 750.797896,507.666081 749.436689,516.227346 740.391285,520.743270 749.511929,530.020317 775.207336,511.827640 763.044589,499.284816"/>