<?xml version="1.0" encoding="UTF-8"?>

<!-- generated on Mon Apr 20 11:09:50 2020 by Eclipse SUMO duarouter Version 1.1.0
<configuration xmlns:xsi="http://www.w3.org/2001/XMLSchema-instance" xsi:noNamespaceSchemaLocation="http://sumo.dlr.de/xsd/duarouterConfiguration.xsd">

    <input>
        <net-file value="/home/derxter/Sumo/2020-04-20-11-09-48/osm.net.xml"/>
        <route-files value="/home/derxter/Sumo/2020-04-20-11-09-48/osm.passenger.trips.xml"/>
    </input>

    <output>
        <output-file value="/home/derxter/Sumo/2020-04-20-11-09-48/osm.passenger.rou.xml"/>
        <alternatives-output value="/home/derxter/Sumo/2020-04-20-11-09-48/osm.passenger.rou.alt.xml"/>
    </output>

    <time>
        <begin value="0"/>
        <end value="3600.0"/>
    </time>

    <report>
        <no-warnings value="true"/>
        <ignore-errors value="true"/>
        <no-step-log value="true"/>
    </report>

</configuration>
-->

<routes xmlns:xsi="http://www.w3.org/2001/XMLSchema-instance" xsi:noNamespaceSchemaLocation="http://sumo.dlr.de/xsd/routes_file.xsd">
    <vType id="veh_passenger" vClass="passenger"/>
    <vehicle id="veh0" type="veh_passenger" depart="0.00" departLane="best" departSpeed="max">
        <route edges="-27295090#1 -27295090#0 -197492564#1 -197492564#0 -27294246#1 -27294246#0"/>
    </vehicle>
    <vehicle id="veh1" type="veh_passenger" depart="0.47" departLane="best" departSpeed="max">
        <route edges="-197492564#2 -197492564#1 -197492564#0 362038389 172445005#1"/>
    </vehicle>
    <vehicle id="veh2" type="veh_passenger" depart="0.94" departLane="best" departSpeed="max">
        <route edges="164026013 314115313#1 108160070#1 362038389 172445005#1"/>
    </vehicle>
    <vehicle id="veh3" type="veh_passenger" depart="1.41" departLane="best" departSpeed="max">
        <route edges="-197492564#2 -197492564#1 -197492564#0 362038389 172445005#1"/>
    </vehicle>
    <vehicle id="veh5" type="veh_passenger" depart="2.35" departLane="best" departSpeed="max">
        <route edges="27294246#0 27294246#1 197492564#0 197492564#1 27295090#0 152741333 191432325#2"/>
    </vehicle>
    <vehicle id="veh6" type="veh_passenger" depart="2.82" departLane="best" departSpeed="max">
        <route edges="108160061 108160070#1 197492564#0 197492564#1 27295090#0 152741333 -191432325#0"/>
    </vehicle>
    <vehicle id="veh7" type="veh_passenger" depart="3.29" departLane="best" departSpeed="max">
        <route edges="27294246#0 27294246#1 197492564#0 197492564#1 27295090#0 152741333 191432325#2"/>
    </vehicle>
    <vehicle id="veh8" type="veh_passenger" depart="3.76" departLane="best" departSpeed="max">
        <route edges="27294246#0 27294246#1 197492564#0 197492564#1 197492564#2"/>
    </vehicle>
    <vehicle id="veh9" type="veh_passenger" depart="4.23" departLane="best" departSpeed="max">
        <route edges="162751446 -191432327#1 -191432327#0 -152741333 27295090#1"/>
    </vehicle>
    <vehicle id="veh10" type="veh_passenger" depart="4.70" departLane="best" departSpeed="max">
        <route edges="27294246#0 27294246#1 197492564#0 197492564#1 27295090#0 152741333 191432325#2"/>
    </vehicle>
    <vehicle id="veh11" type="veh_passenger" depart="5.17" departLane="best" departSpeed="max">
        <route edges="27294246#0 27294246#1 362038389 172445005#1"/>
    </vehicle>
    <vehicle id="veh12" type="veh_passenger" depart="5.64" departLane="best" departSpeed="max">
        <route edges="-27295090#1 -27295090#0 -197492564#1 -197492564#0 -27294246#1 -27294246#0"/>
    </vehicle>
    <vehicle id="veh13" type="veh_passenger" depart="6.11" departLane="best" departSpeed="max">
        <route edges="-191432325#2 191432327#0 191432327#1 211686324#0 211686324#1 -27294246#1 -27294246#0"/>
    </vehicle>
    <vehicle id="veh14" type="veh_passenger" depart="6.58" departLane="best" departSpeed="max">
        <route edges="-191432325#2 191432327#0 191432327#1 211686324#0 211686324#1 -27294246#1 -27294246#0"/>
    </vehicle>
    <vehicle id="veh15" type="veh_passenger" depart="7.05" departLane="best" departSpeed="max">
        <route edges="108160061 108160070#1 -27294246#1 -27294246#0"/>
    </vehicle>
    <vehicle id="veh16" type="veh_passenger" depart="7.52" departLane="best" departSpeed="max">
        <route edges="-197492564#2 -197492564#1 -197492564#0 362038389 374385819 108160105"/>
    </vehicle>
    <vehicle id="veh17" type="veh_passenger" depart="7.99" departLane="best" departSpeed="max">
        <route edges="314115313#0 314115313#1 108160070#1 197492564#0 197492564#1 27295090#0 152741333 191432325#2"/>
    </vehicle>
    <vehicle id="veh18" type="veh_passenger" depart="8.46" departLane="best" departSpeed="max">
        <route edges="27294246#0 27294246#1 197492564#0 197492564#1 197492564#2"/>
    </vehicle>
    <vehicle id="veh20" type="veh_passenger" depart="9.40" departLane="best" departSpeed="max">
        <route edges="-27295090#1 -27295090#0 -197492564#1 -197492564#0 -27294246#1 -27294246#0"/>
    </vehicle>
    <vehicle id="veh21" type="veh_passenger" depart="9.87" departLane="best" departSpeed="max">
        <route edges="-197492564#2 27295090#0 27295090#1"/>
    </vehicle>
    <vehicle id="veh22" type="veh_passenger" depart="10.34" departLane="best" departSpeed="max">
        <route edges="27294246#0 27294246#1 362038389 374385819 108160105"/>
    </vehicle>
    <vehicle id="veh23" type="veh_passenger" depart="10.81" departLane="best" departSpeed="max">
        <route edges="314115313#0 314115313#1 108160070#1 108697072"/>
    </vehicle>
    <vehicle id="veh24" type="veh_passenger" depart="11.28" departLane="best" departSpeed="max">
        <route edges="-27295090#1 -27295090#0 -197492564#1 -197492564#0 -27294246#1 -27294246#0"/>
    </vehicle>
    <vehicle id="veh25" type="veh_passenger" depart="11.75" departLane="best" departSpeed="max">
        <route edges="164026013 314115313#1 108160070#1 -27294246#1 -27294246#0"/>
    </vehicle>
    <vehicle id="veh26" type="veh_passenger" depart="12.22" departLane="best" departSpeed="max">
        <route edges="108160061 108160070#1 -27294246#1 -27294246#0"/>
    </vehicle>
    <vehicle id="veh27" type="veh_passenger" depart="12.69" departLane="best" departSpeed="max">
        <route edges="314115313#0 314115313#1 108160070#1 362038389 172445005#1"/>
    </vehicle>
    <vehicle id="veh28" type="veh_passenger" depart="13.16" departLane="best" departSpeed="max">
        <route edges="27294246#0 27294246#1 108697072"/>
    </vehicle>
    <vehicle id="veh29" type="veh_passenger" depart="13.63" departLane="best" departSpeed="max">
        <route edges="-191432325#2 191432327#0 191432327#1 211686324#0 211686324#1 362038389 374385819 108160105"/>
    </vehicle>
    <vehicle id="veh30" type="veh_passenger" depart="14.10" departLane="best" departSpeed="max">
        <route edges="314115313#0 314115313#1 108160070#1 362038389 172445005#1"/>
    </vehicle>
    <vehicle id="veh31" type="veh_passenger" depart="14.57" departLane="best" departSpeed="max">
        <route edges="-191432325#2 -152741333 -27295090#0 197492564#2"/>
    </vehicle>
    <vehicle id="veh32" type="veh_passenger" depart="15.04" departLane="best" departSpeed="max">
        <route edges="191432325#0 191432327#0 191432327#1 211686324#0 211686324#1 362038389 172445005#1"/>
    </vehicle>
    <vehicle id="veh33" type="veh_passenger" depart="15.51" departLane="best" departSpeed="max">
        <route edges="-197492564#2 -197492564#1 -197492564#0 108697072"/>
    </vehicle>
    <vehicle id="veh34" type="veh_passenger" depart="15.98" departLane="best" departSpeed="max">
        <route edges="162751446 -191432327#1 -191432327#0 -152741333 27295090#1"/>
    </vehicle>
    <vehicle id="veh35" type="veh_passenger" depart="16.45" departLane="best" departSpeed="max">
        <route edges="162751446 -191432327#1 -191432327#0 -191432325#0"/>
    </vehicle>
    <vehicle id="veh36" type="veh_passenger" depart="16.92" departLane="best" departSpeed="max">
        <route edges="191432325#0 191432327#0 191432327#1 211686324#0 211686324#1 362038389 172445005#1"/>
    </vehicle>
    <vehicle id="veh37" type="veh_passenger" depart="17.39" departLane="best" departSpeed="max">
        <route edges="27294246#0 27294246#1 362038389 172445005#1"/>
    </vehicle>
    <vehicle id="veh38" type="veh_passenger" depart="17.86" departLane="best" departSpeed="max">
        <route edges="-191432325#2 191432327#0 191432327#1 211686324#0 211686324#1 362038389 374385819 108160105"/>
    </vehicle>
    <vehicle id="veh39" type="veh_passenger" depart="18.33" departLane="best" departSpeed="max">
        <route edges="27294246#0 27294246#1 362038389 374385819 202186944"/>
    </vehicle>
    <vehicle id="veh41" type="veh_passenger" depart="19.27" departLane="best" departSpeed="max">
        <route edges="27294246#0 27294246#1 197492564#0 197492564#1 27295090#0 27295090#1"/>
    </vehicle>
    <vehicle id="veh42" type="veh_passenger" depart="19.74" departLane="best" departSpeed="max">
        <route edges="-191432325#2 191432327#0 191432327#1 211686324#0 211686324#1 108697072"/>
    </vehicle>
    <vehicle id="veh43" type="veh_passenger" depart="20.21" departLane="best" departSpeed="max">
        <route edges="-191432325#2 -152741333 -27295090#0 197492564#2"/>
    </vehicle>
    <vehicle id="veh44" type="veh_passenger" depart="20.68" departLane="best" departSpeed="max">
        <route edges="162751446 211686324#0 211686324#1 362038389 172445005#1"/>
    </vehicle>
    <vehicle id="veh45" type="veh_passenger" depart="21.15" departLane="best" departSpeed="max">
        <route edges="-27295090#1 -27295090#0 -197492564#1 -197492564#0 362038389 374385819 202186944"/>
    </vehicle>
    <vehicle id="veh46" type="veh_passenger" depart="21.62" departLane="best" departSpeed="max">
        <route edges="108160061 108160070#1 -27294246#1 -27294246#0"/>
    </vehicle>
    <vehicle id="veh47" type="veh_passenger" depart="22.09" departLane="best" departSpeed="max">
        <route edges="162751446 211686324#0 211686324#1 197492564#0 197492564#1 197492564#2"/>
    </vehicle>
    <vehicle id="veh48" type="veh_passenger" depart="22.56" departLane="best" departSpeed="max">
        <route edges="-197492564#2 -197492564#1 -197492564#0 362038389 374385819 108160105"/>
    </vehicle>
    <vehicle id="veh49" type="veh_passenger" depart="23.03" departLane="best" departSpeed="max">
        <route edges="314115313#0 314115313#1 108160070#1 197492564#0 197492564#1 27295090#0 152741333 191432325#2"/>
    </vehicle>
    <vehicle id="veh50" type="veh_passenger" depart="23.50" departLane="best" departSpeed="max">
        <route edges="-197492564#2 -197492564#1 -197492564#0 -27294246#1 -27294246#0"/>
    </vehicle>
    <vehicle id="veh51" type="veh_passenger" depart="23.97" departLane="best" departSpeed="max">
        <route edges="-27295090#1 -27295090#0 -197492564#1 -197492564#0 -27294246#1 -27294246#0"/>
    </vehicle>
    <vehicle id="veh53" type="veh_passenger" depart="24.91" departLane="best" departSpeed="max">
        <route edges="-197492564#2 27295090#0 152741333 -191432325#0"/>
    </vehicle>
    <vehicle id="veh54" type="veh_passenger" depart="25.38" departLane="best" departSpeed="max">
        <route edges="314115313#0 314115313#1 108160070#1 362038389 172445005#1"/>
    </vehicle>
    <vehicle id="veh55" type="veh_passenger" depart="25.85" departLane="best" departSpeed="max">
        <route edges="162751446 211686324#0 211686324#1 197492564#0 197492564#1 197492564#2"/>
    </vehicle>
    <vehicle id="veh56" type="veh_passenger" depart="26.32" departLane="best" departSpeed="max">
        <route edges="27294246#0 27294246#1 197492564#0 197492564#1 27295090#0 152741333 -191432325#0"/>
    </vehicle>
    <vehicle id="veh57" type="veh_passenger" depart="26.79" departLane="best" departSpeed="max">
        <route edges="-191432325#2 191432327#0 191432327#1 211686324#0 211686324#1 108697072"/>
    </vehicle>
    <vehicle id="veh58" type="veh_passenger" depart="27.26" departLane="best" departSpeed="max">
        <route edges="108160061 108160070#1 108697072"/>
    </vehicle>
    <vehicle id="veh59" type="veh_passenger" depart="27.73" departLane="best" departSpeed="max">
        <route edges="-197492564#2 -197492564#1 -197492564#0 108697072"/>
    </vehicle>
    <vehicle id="veh60" type="veh_passenger" depart="28.20" departLane="best" departSpeed="max">
        <route edges="108160061 108160070#1 -27294246#1 -27294246#0"/>
    </vehicle>
    <vehicle id="veh62" type="veh_passenger" depart="29.14" departLane="best" departSpeed="max">
        <route edges="314115313#0 314115313#1 108160070#1 197492564#0 197492564#1 27295090#0 27295090#1"/>
    </vehicle>
    <vehicle id="veh63" type="veh_passenger" depart="29.61" departLane="best" departSpeed="max">
        <route edges="27294246#0 27294246#1 197492564#0 197492564#1 27295090#0 152741333 -191432325#0"/>
    </vehicle>
    <vehicle id="veh64" type="veh_passenger" depart="30.08" departLane="best" departSpeed="max">
        <route edges="162751446 211686324#0 211686324#1 -27294246#1 -27294246#0"/>
    </vehicle>
    <vehicle id="veh65" type="veh_passenger" depart="30.55" departLane="best" departSpeed="max">
        <route edges="108160061 108160070#1 197492564#0 197492564#1 27295090#0 27295090#1"/>
    </vehicle>
    <vehicle id="veh66" type="veh_passenger" depart="31.02" departLane="best" departSpeed="max">
        <route edges="-27295090#1 -27295090#0 197492564#2"/>
    </vehicle>
    <vehicle id="veh67" type="veh_passenger" depart="31.49" departLane="best" departSpeed="max">
        <route edges="314115313#0 314115313#1 108160070#1 197492564#0 197492564#1 27295090#0 27295090#1"/>
    </vehicle>
    <vehicle id="veh68" type="veh_passenger" depart="31.96" departLane="best" departSpeed="max">
        <route edges="164026013 314115313#1 108160070#1 197492564#0 197492564#1 197492564#2"/>
    </vehicle>
    <vehicle id="veh69" type="veh_passenger" depart="32.43" departLane="best" departSpeed="max">
        <route edges="-197492564#2 -197492564#1 -197492564#0 -27294246#1 -27294246#0"/>
    </vehicle>
    <vehicle id="veh70" type="veh_passenger" depart="32.90" departLane="best" departSpeed="max">
        <route edges="314115313#0 314115313#1 108160070#1 362038389 172445005#1"/>
    </vehicle>
    <vehicle id="veh71" type="veh_passenger" depart="33.37" departLane="best" departSpeed="max">
        <route edges="162751446 211686324#0 211686324#1 197492564#0 197492564#1 197492564#2"/>
    </vehicle>
    <vehicle id="veh72" type="veh_passenger" depart="33.84" departLane="best" departSpeed="max">
        <route edges="-191432325#2 191432327#0 191432327#1 211686324#0 211686324#1 362038389 172445005#1"/>
    </vehicle>
    <vehicle id="veh73" type="veh_passenger" depart="34.31" departLane="best" departSpeed="max">
        <route edges="162751446 211686324#0 211686324#1 362038389 374385819 202186944"/>
    </vehicle>
    <vehicle id="veh74" type="veh_passenger" depart="34.78" departLane="best" departSpeed="max">
        <route edges="-197492564#2 27295090#0 27295090#1"/>
    </vehicle>
    <vehicle id="veh75" type="veh_passenger" depart="35.25" departLane="best" departSpeed="max">
        <route edges="314115313#0 314115313#1 108160070#1 -27294246#1 -27294246#0"/>
    </vehicle>
    <vehicle id="veh76" type="veh_passenger" depart="35.72" departLane="best" departSpeed="max">
        <route edges="162751446 -191432327#1 -191432327#0 -152741333 27295090#1"/>
    </vehicle>
    <vehicle id="veh77" type="veh_passenger" depart="36.19" departLane="best" departSpeed="max">
        <route edges="-27295090#1 -27295090#0 -197492564#1 -197492564#0 362038389 374385819 108160105"/>
    </vehicle>
    <vehicle id="veh78" type="veh_passenger" depart="36.66" departLane="best" departSpeed="max">
        <route edges="-27295090#1 -27295090#0 197492564#2"/>
    </vehicle>
    <vehicle id="veh79" type="veh_passenger" depart="37.13" departLane="best" departSpeed="max">
        <route edges="-191432325#2 191432327#0 191432327#1 211686324#0 211686324#1 108697072"/>
    </vehicle>
    <vehicle id="veh80" type="veh_passenger" depart="37.60" departLane="best" departSpeed="max">
        <route edges="314115313#0 314115313#1 108160070#1 197492564#0 197492564#1 27295090#0 27295090#1"/>
    </vehicle>
    <vehicle id="veh81" type="veh_passenger" depart="38.07" departLane="best" departSpeed="max">
        <route edges="-191432325#2 191432327#0 191432327#1 211686324#0 211686324#1 -27294246#1 -27294246#0"/>
    </vehicle>
    <vehicle id="veh82" type="veh_passenger" depart="38.54" departLane="best" departSpeed="max">
        <route edges="27294246#0 27294246#1 362038389 374385819 202186944"/>
    </vehicle>
    <vehicle id="veh83" type="veh_passenger" depart="39.01" departLane="best" departSpeed="max">
        <route edges="108160061 108160070#1 197492564#0 197492564#1 27295090#0 152741333 -191432325#0"/>
    </vehicle>
    <vehicle id="veh84" type="veh_passenger" depart="39.48" departLane="best" departSpeed="max">
        <route edges="27294246#0 27294246#1 197492564#0 197492564#1 197492564#2"/>
    </vehicle>
    <vehicle id="veh85" type="veh_passenger" depart="39.95" departLane="best" departSpeed="max">
        <route edges="164026013 314115313#1 108160070#1 197492564#0 197492564#1 27295090#0 27295090#1"/>
    </vehicle>
    <vehicle id="veh86" type="veh_passenger" depart="40.42" departLane="best" departSpeed="max">
        <route edges="164026013 314115313#1 108160070#1 197492564#0 197492564#1 27295090#0 27295090#1"/>
    </vehicle>
    <vehicle id="veh87" type="veh_passenger" depart="40.89" departLane="best" departSpeed="max">
        <route edges="-197492564#2 27295090#0 152741333 -191432325#0"/>
    </vehicle>
    <vehicle id="veh88" type="veh_passenger" depart="41.36" departLane="best" departSpeed="max">
        <route edges="-191432325#2 191432327#0 191432327#1 211686324#0 211686324#1 362038389 172445005#1"/>
    </vehicle>
    <vehicle id="veh89" type="veh_passenger" depart="41.83" departLane="best" departSpeed="max">
        <route edges="191432325#0 191432327#0 191432327#1 211686324#0 211686324#1 -27294246#1 -27294246#0"/>
    </vehicle>
    <vehicle id="veh90" type="veh_passenger" depart="42.30" departLane="best" departSpeed="max">
        <route edges="164026013 314115313#1 108160070#1 -27294246#1 -27294246#0"/>
    </vehicle>
    <vehicle id="veh91" type="veh_passenger" depart="42.77" departLane="best" departSpeed="max">
        <route edges="162751446 -191432327#1 -191432327#0 -152741333 27295090#1"/>
    </vehicle>
    <vehicle id="veh93" type="veh_passenger" depart="43.71" departLane="best" departSpeed="max">
        <route edges="108160061 108160070#1 -27294246#1 -27294246#0"/>
    </vehicle>
    <vehicle id="veh94" type="veh_passenger" depart="44.18" departLane="best" departSpeed="max">
        <route edges="-191432325#2 -152741333 -27295090#0 197492564#2"/>
    </vehicle>
    <vehicle id="veh95" type="veh_passenger" depart="44.65" departLane="best" departSpeed="max">
        <route edges="164026013 314115313#1 108160070#1 -27294246#1 -27294246#0"/>
    </vehicle>
    <vehicle id="veh96" type="veh_passenger" depart="45.12" departLane="best" departSpeed="max">
        <route edges="191432325#0 191432327#0 191432327#1 211686324#0 211686324#1 362038389 172445005#1"/>
    </vehicle>
    <vehicle id="veh97" type="veh_passenger" depart="45.59" departLane="best" departSpeed="max">
        <route edges="-191432325#2 191432327#0 191432327#1 211686324#0 211686324#1 362038389 374385819 202186944"/>
    </vehicle>
    <vehicle id="veh98" type="veh_passenger" depart="46.06" departLane="best" departSpeed="max">
        <route edges="314115313#0 314115313#1 108160070#1 362038389 172445005#1"/>
    </vehicle>
    <vehicle id="veh99" type="veh_passenger" depart="46.53" departLane="best" departSpeed="max">
        <route edges="27294246#0 27294246#1 362038389 172445005#1"/>
    </vehicle>
    <vehicle id="veh100" type="veh_passenger" depart="47.00" departLane="best" departSpeed="max">
        <route edges="-197492564#2 27295090#0 152741333 -191432325#0"/>
    </vehicle>
    <vehicle id="veh101" type="veh_passenger" depart="47.47" departLane="best" departSpeed="max">
        <route edges="-27295090#1 -27295090#0 -197492564#1 -197492564#0 362038389 374385819 202186944"/>
    </vehicle>
    <vehicle id="veh102" type="veh_passenger" depart="47.94" departLane="best" departSpeed="max">
        <route edges="27294246#0 27294246#1 362038389 374385819 202186944"/>
    </vehicle>
    <vehicle id="veh103" type="veh_passenger" depart="48.41" departLane="best" departSpeed="max">
        <route edges="314115313#0 314115313#1 108160070#1 -27294246#1 -27294246#0"/>
    </vehicle>
    <vehicle id="veh104" type="veh_passenger" depart="48.88" departLane="best" departSpeed="max">
        <route edges="27294246#0 27294246#1 362038389 374385819 202186944"/>
    </vehicle>
    <vehicle id="veh105" type="veh_passenger" depart="49.35" departLane="best" departSpeed="max">
        <route edges="108160061 108160070#1 197492564#0 197492564#1 27295090#0 152741333 191432325#2"/>
    </vehicle>
    <vehicle id="veh106" type="veh_passenger" depart="49.82" departLane="best" departSpeed="max">
        <route edges="-197492564#2 27295090#0 27295090#1"/>
    </vehicle>
    <vehicle id="veh107" type="veh_passenger" depart="50.29" departLane="best" departSpeed="max">
        <route edges="27294246#0 27294246#1 197492564#0 197492564#1 27295090#0 27295090#1"/>
    </vehicle>
    <vehicle id="veh108" type="veh_passenger" depart="50.76" departLane="best" departSpeed="max">
        <route edges="27294246#0 27294246#1 362038389 374385819 202186944"/>
    </vehicle>
    <vehicle id="veh109" type="veh_passenger" depart="51.23" departLane="best" departSpeed="max">
        <route edges="-191432325#2 -152741333 -27295090#0 197492564#2"/>
    </vehicle>
    <vehicle id="veh110" type="veh_passenger" depart="51.70" departLane="best" departSpeed="max">
        <route edges="27294246#0 27294246#1 362038389 374385819 202186944"/>
    </vehicle>
    <vehicle id="veh111" type="veh_passenger" depart="52.17" departLane="best" departSpeed="max">
        <route edges="27294246#0 27294246#1 197492564#0 197492564#1 27295090#0 152741333 -191432325#0"/>
    </vehicle>
    <vehicle id="veh112" type="veh_passenger" depart="52.64" departLane="best" departSpeed="max">
        <route edges="27294246#0 27294246#1 362038389 374385819 202186944"/>
    </vehicle>
    <vehicle id="veh113" type="veh_passenger" depart="53.11" departLane="best">
        <route edges="-27295090#0 -197492564#1 -197492564#0 362038389 374385819 202186944"/>
    </vehicle>
    <vehicle id="veh114" type="veh_passenger" depart="53.58" departLane="best" departSpeed="max">
        <route edges="162751446 211686324#0 211686324#1 362038389 374385819 108160105"/>
    </vehicle>
    <vehicle id="veh115" type="veh_passenger" depart="54.05" departLane="best" departSpeed="max">
        <route edges="-27295090#1 -27295090#0 -197492564#1 -197492564#0 362038389 374385819 202186944"/>
    </vehicle>
    <vehicle id="veh116" type="veh_passenger" depart="54.52" departLane="best" departSpeed="max">
        <route edges="314115313#0 314115313#1 108160070#1 -27294246#1 -27294246#0"/>
    </vehicle>
    <vehicle id="veh117" type="veh_passenger" depart="54.99" departLane="best" departSpeed="max">
        <route edges="314115313#0 314115313#1 108160070#1 362038389 172445005#1"/>
    </vehicle>
    <vehicle id="veh118" type="veh_passenger" depart="55.46" departLane="best" departSpeed="max">
        <route edges="314115313#0 314115313#1 108160070#1 197492564#0 197492564#1 27295090#0 152741333 -191432325#0"/>
    </vehicle>
    <vehicle id="veh119" type="veh_passenger" depart="55.93" departLane="best" departSpeed="max">
        <route edges="314115313#0 314115313#1 108160070#1 197492564#0 197492564#1 27295090#0 152741333 -191432325#0"/>
    </vehicle>
    <vehicle id="veh120" type="veh_passenger" depart="56.40" departLane="best" departSpeed="max">
        <route edges="314115313#0 314115313#1 108160070#1 -27294246#1 -27294246#0"/>
    </vehicle>
    <vehicle id="veh121" type="veh_passenger" depart="56.87" departLane="best" departSpeed="max">
        <route edges="-191432325#2 191432327#0 191432327#1 211686324#0 211686324#1 108697072"/>
    </vehicle>
    <vehicle id="veh122" type="veh_passenger" depart="57.34" departLane="best" departSpeed="max">
        <route edges="191432325#0 191432327#0 191432327#1 211686324#0 211686324#1 362038389 374385819 108160105"/>
    </vehicle>
    <vehicle id="veh123" type="veh_passenger" depart="57.81" departLane="best" departSpeed="max">
        <route edges="164026013 314115313#1 108160070#1 362038389 172445005#1"/>
    </vehicle>
    <vehicle id="veh124" type="veh_passenger" depart="58.28" departLane="best" departSpeed="max">
        <route edges="-27295090#1 -27295090#0 197492564#2"/>
    </vehicle>
    <vehicle id="veh125" type="veh_passenger" depart="58.75" departLane="best" departSpeed="max">
        <route edges="162751446 211686324#0 211686324#1 197492564#0 197492564#1 197492564#2"/>
    </vehicle>
    <vehicle id="veh126" type="veh_passenger" depart="59.22" departLane="best" departSpeed="max">
        <route edges="-27295090#1 -27295090#0 -197492564#1 -197492564#0 362038389 374385819 202186944"/>
    </vehicle>
    <vehicle id="veh127" type="veh_passenger" depart="59.70" departLane="best" departSpeed="max">
        <route edges="191432325#0 191432327#0 191432327#1 211686324#0 211686324#1 362038389 374385819 108160105"/>
    </vehicle>
    <vehicle id="veh128" type="veh_passenger" depart="60.17" departLane="best" departSpeed="max">
        <route edges="-27295090#1 -27295090#0 -197492564#1 -197492564#0 108697072"/>
    </vehicle>
    <vehicle id="veh129" type="veh_passenger" depart="60.64" departLane="best" departSpeed="max">
        <route edges="108160061 108160070#1 -27294246#1 -27294246#0"/>
    </vehicle>
    <vehicle id="veh130" type="veh_passenger" depart="61.11" departLane="best" departSpeed="max">
        <route edges="-197492564#2 -197492564#1 -197492564#0 108697072"/>
    </vehicle>
    <vehicle id="veh131" type="veh_passenger" depart="61.58" departLane="best" departSpeed="max">
        <route edges="314115313#0 314115313#1 108160070#1 197492564#0 197492564#1 27295090#0 152741333 191432325#2"/>
    </vehicle>
    <vehicle id="veh132" type="veh_passenger" depart="62.05" departLane="best" departSpeed="max">
        <route edges="314115313#0 314115313#1 108160070#1 197492564#0 197492564#1 27295090#0 152741333 191432325#2"/>
    </vehicle>
    <vehicle id="veh133" type="veh_passenger" depart="62.52" departLane="best" departSpeed="max">
        <route edges="-27295090#1 -27295090#0 -197492564#1 -197492564#0 362038389 172445005#1"/>
    </vehicle>
    <vehicle id="veh134" type="veh_passenger" depart="62.99" departLane="best" departSpeed="max">
        <route edges="-191432325#2 191432327#0 191432327#1 211686324#0 211686324#1 -27294246#1 -27294246#0"/>
    </vehicle>
    <vehicle id="veh135" type="veh_passenger" depart="63.46" departLane="best" departSpeed="max">
        <route edges="164026013 314115313#1 108160070#1 108697072"/>
    </vehicle>
    <vehicle id="veh136" type="veh_passenger" depart="63.93" departLane="best" departSpeed="max">
        <route edges="108160061 108160070#1 -27294246#1 -27294246#0"/>
    </vehicle>
    <vehicle id="veh137" type="veh_passenger" depart="64.40" departLane="best" departSpeed="max">
        <route edges="162751446 -191432327#1 -191432327#0 -152741333 27295090#1"/>
    </vehicle>
    <vehicle id="veh138" type="veh_passenger" depart="64.87" departLane="best" departSpeed="max">
        <route edges="27294246#0 27294246#1 197492564#0 197492564#1 27295090#0 152741333 -191432325#0"/>
    </vehicle>
    <vehicle id="veh139" type="veh_passenger" depart="65.34" departLane="best" departSpeed="max">
        <route edges="-191432325#2 191432327#0 191432327#1 211686324#0 211686324#1 362038389 172445005#1"/>
    </vehicle>
    <vehicle id="veh140" type="veh_passenger" depart="65.81" departLane="best" departSpeed="max">
        <route edges="27294246#0 27294246#1 197492564#0 197492564#1 197492564#2"/>
    </vehicle>
    <vehicle id="veh141" type="veh_passenger" depart="66.28" departLane="best" departSpeed="max">
        <route edges="191432325#0 191432327#0 191432327#1 211686324#0 211686324#1 -27294246#1 -27294246#0"/>
    </vehicle>
    <vehicle id="veh143" type="veh_passenger" depart="67.22" departLane="best" departSpeed="max">
        <route edges="-27295090#1 -27295090#0 -197492564#1 -197492564#0 108697072"/>
    </vehicle>
    <vehicle id="veh145" type="veh_passenger" depart="68.16" departLane="best" departSpeed="max">
        <route edges="108160061 108160070#1 197492564#0 197492564#1 27295090#0 152741333 191432325#2"/>
    </vehicle>
    <vehicle id="veh146" type="veh_passenger" depart="68.63" departLane="best" departSpeed="max">
        <route edges="-197492564#2 27295090#0 152741333 191432325#2"/>
    </vehicle>
    <vehicle id="veh147" type="veh_passenger" depart="69.10" departLane="best" departSpeed="max">
        <route edges="162751446 211686324#0 211686324#1 -27294246#1 -27294246#0"/>
    </vehicle>
    <vehicle id="veh148" type="veh_passenger" depart="69.57" departLane="best" departSpeed="max">
        <route edges="191432325#0 -152741333 -27295090#0 197492564#2"/>
    </vehicle>
    <vehicle id="veh149" type="veh_passenger" depart="70.04" departLane="best" departSpeed="max">
        <route edges="-191432325#2 191432327#0 191432327#1 211686324#0 211686324#1 108697072"/>
    </vehicle>
    <vehicle id="veh150" type="veh_passenger" depart="70.51" departLane="best" departSpeed="max">
        <route edges="-197492564#2 27295090#0 27295090#1"/>
    </vehicle>