<?xml version="1.0" encoding="UTF-8"?>
<!-- generated on 2020-04-20 11:09:50.569885 by $Id$ via randomTrips.py
  options: 
-->
<routes xmlns:xsi="http://www.w3.org/2001/XMLSchema-instance" xsi:noNamespaceSchemaLocation="http://sumo.dlr.de/xsd/routes_file.xsd">
    <vType id="veh_passenger" vClass="passenger">
    </vType>
    <trip id="veh0" depart="0.00" departLane="best" departSpeed="max" from="-27295090#1" to="-27294246#0" type="veh_passenger"/>
    <trip id="veh1" depart="0.47" departLane="best" departSpeed="max" from="-197492564#2" to="172445005#1" type="veh_passenger"/>
    <trip id="veh2" depart="0.94" departLane="best" departSpeed="max" from="164026013" to="172445005#1" type="veh_passenger"/>
    <trip id="veh3" depart="1.41" departLane="best" departSpeed="max" from="-197492564#2" to="172445005#1" type="veh_passenger"/>
    <trip id="veh5" depart="2.35" departLane="best" departSpeed="max" from="27294246#0" to="191432325#2" type="veh_passenger"/>
    <trip id="veh6" depart="2.82" departLane="best" departSpeed="max" from="108160061" to="-191432325#0" type="veh_passenger"/>
    <trip id="veh7" depart="3.29" departLane="best" departSpeed="max" from="27294246#0" to="191432325#2" type="veh_passenger"/>
    <trip id="veh8" depart="3.76" departLane="best" departSpeed="max" from="27294246#0" to="197492564#2" type="veh_passenger"/>
    <trip id="veh9" depart="4.23" departLane="best" departSpeed="max" from="162751446" to="27295090#1" type="veh_passenger"/>
    <trip id="veh10" depart="4.70" departLane="best" departSpeed="max" from="27294246#0" to="191432325#2" type="veh_passenger"/>
    <trip id="veh11" depart="5.17" departLane="best" departSpeed="max" from="27294246#0" to="172445005#1" type="veh_passenger"/>
    <trip id="veh12" depart="5.64" departLane="best" departSpeed="max" from="-27295090#1" to="-27294246#0" type="veh_passenger"/>
    <trip id="veh13" depart="6.11" departLane="best" departSpeed="max" from="-191432325#2" to="-27294246#0" type="veh_passenger"/>
    <trip id="veh14" depart="6.58" departLane="best" departSpeed="max" from="-191432325#2" to="-27294246#0" type="veh_passenger"/>
    <trip id="veh15" depart="7.05" departLane="best" departSpeed="max" from="108160061" to="-27294246#0" type="veh_passenger"/>
    <trip id="veh16" depart="7.52" departLane="best" departSpeed="max" from="-197492564#2" to="108160105" type="veh_passenger"/>
    <trip id="veh17" depart="7.99" departLane="best" departSpeed="max" from="314115313#0" to="191432325#2" type="veh_passenger"/>
    <trip id="veh18" depart="8.46" departLane="best" departSpeed="max" from="27294246#0" to="197492564#2" type="veh_passenger"/>
    <trip id="veh20" depart="9.40" departLane="best" departSpeed="max" from="-27295090#1" to="-27294246#0" type="veh_passenger"/>
    <trip id="veh21" depart="9.87" departLane="best" departSpeed="max" from="-197492564#2" to="27295090#1" type="veh_passenger"/>
    <trip id="veh22" depart="10.34" departLane="best" departSpeed="max" from="27294246#0" to="108160105" type="veh_passenger"/>
    <trip id="veh23" depart="10.81" departLane="best" departSpeed="max" from="314115313#0" to="108697072" type="veh_passenger"/>
    <trip id="veh24" depart="11.28" departLane="best" departSpeed="max" from="-27295090#1" to="-27294246#0" type="veh_passenger"/>
    <trip id="veh25" depart="11.75" departLane="best" departSpeed="max" from="164026013" to="-27294246#0" type="veh_passenger"/>
    <trip id="veh26" depart="12.22" departLane="best" departSpeed="max" from="108160061" to="-27294246#0" type="veh_passenger"/>
    <trip id="veh27" depart="12.69" departLane="best" departSpeed="max" from="314115313#0" to="172445005#1" type="veh_passenger"/>
    <trip id="veh28" depart="13.16" departLane="best" departSpeed="max" from="27294246#0" to="108697072" type="veh_passenger"/>
    <trip id="veh29" depart="13.63" departLane="best" departSpeed="max" from="-191432325#2" to="108160105" type="veh_passenger"/>
    <trip id="veh30" depart="14.10" departLane="best" departSpeed="max" from="314115313#0" to="172445005#1" type="veh_passenger"/>
    <trip id="veh31" depart="14.57" departLane="best" departSpeed="max" from="-191432325#2" to="197492564#2" type="veh_passenger"/>
    <trip id="veh32" depart="15.04" departLane="best" departSpeed="max" from="191432325#0" to="172445005#1" type="veh_passenger"/>
    <trip id="veh33" depart="15.51" departLane="best" departSpeed="max" from="-197492564#2" to="108697072" type="veh_passenger"/>
    <trip id="veh34" depart="15.98" departLane="best" departSpeed="max" from="162751446" to="27295090#1" type="veh_passenger"/>
    <trip id="veh35" depart="16.45" departLane="best" departSpeed="max" from="162751446" to="-191432325#0" type="veh_passenger"/>
    <trip id="veh36" depart="16.92" departLane="best" departSpeed="max" from="191432325#0" to="172445005#1" type="veh_passenger"/>
    <trip id="veh37" depart="17.39" departLane="best" departSpeed="max" from="27294246#0" to="172445005#1" type="veh_passenger"/>
    <trip id="veh38" depart="17.86" departLane="best" departSpeed="max" from="-191432325#2" to="108160105" type="veh_passenger"/>
    <trip id="veh39" depart="18.33" departLane="best" departSpeed="max" from="27294246#0" to="202186944" type="veh_passenger"/>
    <trip id="veh41" depart="19.27" departLane="best" departSpeed="max" from="27294246#0" to="27295090#1" type="veh_passenger"/>
    <trip id="veh42" depart="19.74" departLane="best" departSpeed="max" from="-191432325#2" to="108697072" type="veh_passenger"/>
    <trip id="veh43" depart="20.21" departLane="best" departSpeed="max" from="-191432325#2" to="197492564#2" type="veh_passenger"/>
    <trip id="veh44" depart="20.68" departLane="best" departSpeed="max" from="162751446" to="172445005#1" type="veh_passenger"/>
    <trip id="veh45" depart="21.15" departLane="best" departSpeed="max" from="-27295090#1" to="202186944" type="veh_passenger"/>
    <trip id="veh46" depart="21.62" departLane="best" departSpeed="max" from="108160061" to="-27294246#0" type="veh_passenger"/>
    <trip id="veh47" depart="22.09" departLane="best" departSpeed="max" from="162751446" to="197492564#2" type="veh_passenger"/>
    <trip id="veh48" depart="22.56" departLane="best" departSpeed="max" from="-197492564#2" to="108160105" type="veh_passenger"/>
    <trip id="veh49" depart="23.03" departLane="best" departSpeed="max" from="314115313#0" to="191432325#2" type="veh_passenger"/>
    <trip id="veh50" depart="23.50" departLane="best" departSpeed="max" from="-197492564#2" to="-27294246#0" type="veh_passenger"/>
    <trip id="veh51" depart="23.97" departLane="best" departSpeed="max" from="-27295090#1" to="-27294246#0" type="veh_passenger"/>
    <trip id="veh53" depart="24.91" departLane="best" departSpeed="max" from="-197492564#2" to="-191432325#0" type="veh_passenger"/>
    <trip id="veh54" depart="25.38" departLane="best" departSpeed="max" from="314115313#0" to="172445005#1" type="veh_passenger"/>
    <trip id="veh55" depart="25.85" departLane="best" departSpeed="max" from="162751446" to="197492564#2" type="veh_passenger"/>
    <trip id="veh56" depart="26.32" departLane="best" departSpeed="max" from="27294246#0" to="-191432325#0" type="veh_passenger"/>
    <trip id="veh57" depart="26.79" departLane="best" departSpeed="max" from="-191432325#2" to="108697072" type="veh_passenger"/>
    <trip id="veh58" depart="27.26" departLane="best" departSpeed="max" from="108160061" to="108697072" type="veh_passenger"/>
    <trip id="veh59" depart="27.73" departLane="best" departSpeed="max" from="-197492564#2" to="108697072" type="veh_passenger"/>
    <trip id="veh60" depart="28.20" departLane="best" departSpeed="max" from="108160061" to="-27294246#0" type="veh_passenger"/>
    <trip id="veh62" depart="29.14" departLane="best" departSpeed="max" from="314115313#0" to="27295090#1" type="veh_passenger"/>
    <trip id="veh63" depart="29.61" departLane="best" departSpeed="max" from="27294246#0" to="-191432325#0" type="veh_passenger"/>
    <trip id="veh64" depart="30.08" departLane="best" departSpeed="max" from="162751446" to="-27294246#0" type="veh_passenger"/>
    <trip id="veh65" depart="30.55" departLane="best" departSpeed="max" from="108160061" to="27295090#1" type="veh_passenger"/>
    <trip id="veh66" depart="31.02" departLane="best" departSpeed="max" from="-27295090#1" to="197492564#2" type="veh_passenger"/>
    <trip id="veh67" depart="31.49" departLane="best" departSpeed="max" from="314115313#0" to="27295090#1" type="veh_passenger"/>
    <trip id="veh68" depart="31.96" departLane="best" departSpeed="max" from="164026013" to="197492564#2" type="veh_passenger"/>
    <trip id="veh69" depart="32.43" departLane="best" departSpeed="max" from="-197492564#2" to="-27294246#0" type="veh_passenger"/>
    <trip id="veh70" depart="32.90" departLane="best" departSpeed="max" from="314115313#0" to="172445005#1" type="veh_passenger"/>
    <trip id="veh71" depart="33.37" departLane="best" departSpeed="max" from="162751446" to="197492564#2" type="veh_passenger"/>
    <trip id="veh72" depart="33.84" departLane="best" departSpeed="max" from="-191432325#2" to="172445005#1" type="veh_passenger"/>
    <trip id="veh73" depart="34.31" departLane="best" departSpeed="max" from="162751446" to="202186944" type="veh_passenger"/>
    <trip id="veh74" depart="34.78" departLane="best" departSpeed="max" from="-197492564#2" to="27295090#1" type="veh_passenger"/>
    <trip id="veh75" depart="35.25" departLane="best" departSpeed="max" from="314115313#0" to="-27294246#0" type="veh_passenger"/>
    <trip id="veh76" depart="35.72" departLane="best" departSpeed="max" from="162751446" to="27295090#1" type="veh_passenger"/>
    <trip id="veh77" depart="36.19" departLane="best" departSpeed="max" from="-27295090#1" to="108160105" type="veh_passenger"/>
    <trip id="veh78" depart="36.66" departLane="best" departSpeed="max" from="-27295090#1" to="197492564#2" type="veh_passenger"/>
    <trip id="veh79" depart="37.13" departLane="best" departSpeed="max" from="-191432325#2" to="108697072" type="veh_passenger"/>
    <trip id="veh80" depart="37.60" departLane="best" departSpeed="max" from="314115313#0" to="27295090#1" type="veh_passenger"/>
    <trip id="veh81" depart="38.07" departLane="best" departSpeed="max" from="-191432325#2" to="-27294246#0" type="veh_passenger"/>
    <trip id="veh82" depart="38.54" departLane="best" departSpeed="max" from="27294246#0" to="202186944" type="veh_passenger"/>
    <trip id="veh83" depart="39.01" departLane="best" departSpeed="max" from="108160061" to="-191432325#0" type="veh_passenger"/>
    <trip id="veh84" depart="39.48" departLane="best" departSpeed="max" from="27294246#0" to="197492564#2" type="veh_passenger"/>
    <trip id="veh85" depart="39.95" departLane="best" departSpeed="max" from="164026013" to="27295090#1" type="veh_passenger"/>
    <trip id="veh86" depart="40.42" departLane="best" departSpeed="max" from="164026013" to="27295090#1" type="veh_passenger"/>
    <trip id="veh87" depart="40.89" departLane="best" departSpeed="max" from="-197492564#2" to="-191432325#0" type="veh_passenger"/>
    <trip id="veh88" depart="41.36" departLane="best" departSpeed="max" from="-191432325#2" to="172445005#1" type="veh_passenger"/>
    <trip id="veh89" depart="41.83" departLane="best" departSpeed="max" from="191432325#0" to="-27294246#0" type="veh_passenger"/>
    <trip id="veh90" depart="42.30" departLane="best" departSpeed="max" from="164026013" to="-27294246#0" type="veh_passenger"/>
    <trip id="veh91" depart="42.77" departLane="best" departSpeed="max" from="162751446" to="27295090#1" type="veh_passenger"/>
    <trip id="veh93" depart="43.71" departLane="best" departSpeed="max" from="108160061" to="-27294246#0" type="veh_passenger"/>
    <trip id="veh94" depart="44.18" departLane="best" departSpeed="max" from="-191432325#2" to="197492564#2" type="veh_passenger"/>
    <trip id="veh95" depart="44.65" departLane="best" departSpeed="max" from="164026013" to="-27294246#0" type="veh_passenger"/>
    <trip id="veh96" depart="45.12" departLane="best" departSpeed="max" from="191432325#0" to="172445005#1" type="veh_passenger"/>
    <trip id="veh97" depart="45.59" departLane="best" departSpeed="max" from="-191432325#2" to="202186944" type="veh_passenger"/>
    <trip id="veh98" depart="46.06" departLane="best" departSpeed="max" from="314115313#0" to="172445005#1" type="veh_passenger"/>
    <trip id="veh99" depart="46.53" departLane="best" departSpeed="max" from="27294246#0" to="172445005#1" type="veh_passenger"/>
    <trip id="veh100" depart="47.00" departLane="best" departSpeed="max" from="-197492564#2" to="-191432325#0" type="veh_passenger"/>
    <trip id="veh101" depart="47.47" departLane="best" departSpeed="max" from="-27295090#1" to="202186944" type="veh_passenger"/>
    <trip id="veh102" depart="47.94" departLane="best" departSpeed="max" from="27294246#0" to="202186944" type="veh_passenger"/>
    <trip id="veh103" depart="48.41" departLane="best" departSpeed="max" from="314115313#0" to="-27294246#0" type="veh_passenger"/>
    <trip id="veh104" depart="48.88" departLane="best" departSpeed="max" from="27294246#0" to="202186944" type="veh_passenger"/>
    <trip id="veh105" depart="49.35" departLane="best" departSpeed="max" from="108160061" to="191432325#2" type="veh_passenger"/>
    <trip id="veh106" depart="49.82" departLane="best" departSpeed="max" from="-197492564#2" to="27295090#1" type="veh_passenger"/>
    <trip id="veh107" depart="50.29" departLane="best" departSpeed="max" from="27294246#0" to="27295090#1" type="veh_passenger"/>
    <trip id="veh108" depart="50.76" departLane="best" departSpeed="max" from="27294246#0" to="202186944" type="veh_passenger"/>
    <trip id="veh109" depart="51.23" departLane="best" departSpeed="max" from="-191432325#2" to="197492564#2" type="veh_passenger"/>
    <trip id="veh110" depart="51.70" departLane="best" departSpeed="max" from="27294246#0" to="202186944" type="veh_passenger"/>
    <trip id="veh111" depart="52.17" departLane="best" departSpeed="max" from="27294246#0" to="-191432325#0" type="veh_passenger"/>
    <trip id="veh112" depart="52.64" departLane="best" departSpeed="max" from="27294246#0" to="202186944" type="veh_passenger"/>
    <trip id="veh113" depart="53.11" departLane="best" from="-27295090#0" to="202186944" type="veh_passenger"/>
    <trip id="veh114" depart="53.58" departLane="best" departSpeed="max" from="162751446" to="108160105" type="veh_passenger"/>
    <trip id="veh115" depart="54.05" departLane="best" departSpeed="max" from="-27295090#1" to="202186944" type="veh_passenger"/>
    <trip id="veh116" depart="54.52" departLane="best" departSpeed="max" from="314115313#0" to="-27294246#0" type="veh_passenger"/>
    <trip id="veh117" depart="54.99" departLane="best" departSpeed="max" from="314115313#0" to="172445005#1" type="veh_passenger"/>
    <trip id="veh118" depart="55.46" departLane="best" departSpeed="max" from="314115313#0" to="-191432325#0" type="veh_passenger"/>
    <trip id="veh119" depart="55.93" departLane="best" departSpeed="max" from="314115313#0" to="-191432325#0" type="veh_passenger"/>
    <trip id="veh120" depart="56.40" departLane="best" departSpeed="max" from="314115313#0" to="-27294246#0" type="veh_passenger"/>
    <trip id="veh121" depart="56.87" departLane="best" departSpeed="max" from="-191432325#2" to="108697072" type="veh_passenger"/>
    <trip id="veh122" depart="57.34" departLane="best" departSpeed="max" from="191432325#0" to="108160105" type="veh_passenger"/>
    <trip id="veh123" depart="57.81" departLane="best" departSpeed="max" from="164026013" to="172445005#1" type="veh_passenger"/>
    <trip id="veh124" depart="58.28" departLane="best" departSpeed="max" from="-27295090#1" to="197492564#2" type="veh_passenger"/>
    <trip id="veh125" depart="58.75" departLane="best" departSpeed="max" from="162751446" to="197492564#2" type="veh_passenger"/>
    <trip id="veh126" depart="59.22" departLane="best" departSpeed="max" from="-27295090#1" to="202186944" type="veh_passenger"/>
    <trip id="veh127" depart="59.70" departLane="best" departSpeed="max" from="191432325#0" to="108160105" type="veh_passenger"/>
    <trip id="veh128" depart="60.17" departLane="best" departSpeed="max" from="-27295090#1" to="108697072" type="veh_passenger"/>
    <trip id="veh129" depart="60.64" departLane="best" departSpeed="max" from="108160061" to="-27294246#0" type="veh_passenger"/>
    <trip id="veh130" depart="61.11" departLane="best" departSpeed="max" from="-197492564#2" to="108697072" type="veh_passenger"/>
    <trip id="veh131" depart="61.58" departLane="best" departSpeed="max" from="314115313#0" to="191432325#2" type="veh_passenger"/>
    <trip id="veh132" depart="62.05" departLane="best" departSpeed="max" from="314115313#0" to="191432325#2" type="veh_passenger"/>
    <trip id="veh133" depart="62.52" departLane="best" departSpeed="max" from="-27295090#1" to="172445005#1" type="veh_passenger"/>
    <trip id="veh134" depart="62.99" departLane="best" departSpeed="max" from="-191432325#2" to="-27294246#0" type="veh_passenger"/>
    <trip id="veh135" depart="63.46" departLane="best" departSpeed="max" from="164026013" to="108697072" type="veh_passenger"/>
    <trip id="veh136" depart="63.93" departLane="best" departSpeed="max" from="108160061" to="-27294246#0" type="veh_passenger"/>
    <trip id="veh137" depart="64.40" departLane="best" departSpeed="max" from="162751446" to="27295090#1" type="veh_passenger"/>
    <trip id="veh138" depart="64.87" departLane="best" departSpeed="max" from="27294246#0" to="-191432325#0" type="veh_passenger"/>
    <trip id="veh139" depart="65.34" departLane="best" departSpeed="max" from="-191432325#2" to="172445005#1" type="veh_passenger"/>
    <trip id="veh140" depart="65.81" departLane="best" departSpeed="max" from="27294246#0" to="197492564#2" type="veh_passenger"/>
    <trip id="veh141" depart="66.28" departLane="best" departSpeed="max" from="191432325#0" to="-27294246#0" type="veh_passenger"/>
    <trip id="veh143" depart="67.22" departLane="best" departSpeed="max" from="-27295090#1" to="108697072" type="veh_passenger"/>
    <trip id="veh145" depart="68.16" departLane="best" departSpeed="max" from="108160061" to="191432325#2" type="veh_passenger"/>
    <trip id="veh146" depart="68.63" departLane="best" departSpeed="max" from="-197492564#2" to="191432325#2" type="veh_passenger"/>
    <trip id="veh147" depart="69.10" departLane="best" departSpeed="max" from="162751446" to="-27294246#0" type="veh_passenger"/>
    <trip id="veh148" depart="69.57" departLane="best" departSpeed="max" from="191432325#0" to="197492564#2" type="veh_passenger"/>
    <trip id="veh149" depart="70.04" departLane="best" departSpeed="max" from="-191432325#2" to="108697072" type="veh_passenger"/>
    <trip id="veh150" depart="70.51" departLane="best" departSpeed="max" from="-197492564#2" to="27295090#1" type="veh_passenger"/>
    <trip id="veh152" depart="71.45" departLane="best" departSpeed="max" from="-27295090#1" to="202186944" type="veh_passenger"/>
    <trip id="veh153" depart="71.92" departLane="best" departSpeed="max" from="162751446" to="202186944" type="veh_passenger"/>
    <trip id="veh154" depart="72.39" departLane="best" departSpeed="max" from="164026013" to="27295090#1" type="veh_passenger"/>
    <trip id="veh155" depart="72.86" departLane="best" departSpeed="max" from="314115313#0" to="191432325#2" type="veh_passenger"/>
    <trip id="veh156" depart="73.33" departLane="best" departSpeed="max" from="191432325#0" to="172445005#1" type="veh_passenger"/>
    <trip id="veh157" depart="73.80" departLane="best" departSpeed="max" from="27294246#0" to="172445005#1" type="veh_passenger"/>
    <trip id="veh158" depart="74.27" departLane="best" departSpeed="max" from="314115313#0" to="197492564#2" type="veh_passenger"/>
    <trip id="veh159" depart="74.74" departLane="best" departSpeed="max" from="162751446" to="-27294246#0" type="veh_passenger"/>
    <trip id="veh160" depart="75.21" departLane="best" departSpeed="max" from="191432325#0" to="172445005#1" type="veh_passenger"/>
    <trip id="veh161" depart="75.68" departLane="best" departSpeed="max" from="164026013" to="-27294246#0" type="veh_passenger"/>
    <trip id="veh162" depart="76.15" departLane="best" departSpeed="max" from="-191432325#2" to="-27294246#0" type="veh_passenger"/>
    <trip id="veh163" depart="76.62" departLane="best" departSpeed="max" from="-27295090#1" to="108160105" type="veh_passenger"/>
    <trip id="veh164" depart="77.09" departLane="best" departSpeed="max" from="162751446" to="-191432325#0" type="veh_passenger"/>
    <trip id="veh165" depart="77.56" departLane="best" departSpeed="max" from="108160061" to="-27294246#0" type="veh_passenger"/>
    <trip id="veh166" depart="78.03" departLane="best" departSpeed="max" from="108160061" to="27295090#1" type="veh_passenger"/>
    <trip id="veh167" depart="78.50" departLane="best" departSpeed="max" from="27294246#0" to="197492564#2" type="veh_passenger"/>
    <trip id="veh168" depart="78.97" departLane="best" departSpeed="max" from="108160061" to="197492564#2" type="veh_passenger"/>
    <trip id="veh169" depart="79.44" departLane="best" departSpeed="max" from="27294246#0" to="27295090#1" type="veh_passenger"/>
    <trip id="veh170" depart="79.91" departLane="best" departSpeed="max" from="108160061" to="197492564#2" type="veh_passenger"/>
    <trip id="veh171" depart="80.38" departLane="best" departSpeed="max" from="162751446" to="191432325#2" type="veh_passenger"/>
    <trip id="veh172" depart="80.85" departLane="best" departSpeed="max" from="-197492564#2" to="-27294246#0" type="veh_passenger"/>
    <trip id="veh173" depart="81.32" departLane="best" departSpeed="max" from="108160061" to="191432325#2" type="veh_passenger"/>
    <trip id="veh174" depart="81.79" departLane="best" departSpeed="max" from="108160061" to="-191432325#0" type="veh_passenger"/>
    <trip id="veh175" depart="82.26" departLane="best" departSpeed="max" from="162751446" to="-191432325#0" type="veh_passenger"/>
    <trip id="veh176" depart="82.73" departLane="best" departSpeed="max" from="-197492564#2" to="108697072" type="veh_passenger"/>
    <trip id="veh177" depart="83.20" departLane="best" departSpeed="max" from="-191432325#2" to="108160105" type="veh_passenger"/>
    <trip id="veh178" depart="83.67" departLane="best" departSpeed="max" from="-197492564#2" to="108160105" type="veh_passenger"/>
    <trip id="veh179" depart="84.14" departLane="best" departSpeed="max" from="191432325#0" to="108160105" type="veh_passenger"/>
    <trip id="veh180" depart="84.61" departLane="best" departSpeed="max" from="191432325#0" to="202186944" type="veh_passenger"/>
    <trip id="veh182" depart="85.55" departLane="best" departSpeed="max" from="-191432325#2" to="172445005#1" type="veh_passenger"/>
    <trip id="veh183" depart="86.02" departLane="best" departSpeed="max" from="164026013" to="197492564#2" type="veh_passenger"/>
    <trip id="veh184" depart="86.49" departLane="best" departSpeed="max" from="164026013" to="197492564#2" type="veh_passenger"/>
    <trip id="veh185" depart="86.96" departLane="best" departSpeed="max" from="314115313#0" to="-191432325#0" type="veh_passenger"/>
    <trip id="veh186" depart="87.43" departLane="best" departSpeed="max" from="-197492564#2" to="191432325#2" type="veh_passenger"/>
    <trip id="veh187" depart="87.90" departLane="best" departSpeed="max" from="164026013" to="-27294246#0" type="veh_passenger"/>
    <trip id="veh188" depart="88.37" departLane="best" departSpeed="max" from="191432325#0" to="197492564#2" type="veh_passenger"/>
    <trip id="veh189" depart="88.84" departLane="best" departSpeed="max" from="-197492564#2" to="191432325#2" type="veh_passenger"/>
    <trip id="veh190" depart="89.31" departLane="best" departSpeed="max" from="27294246#0" to="27295090#1" type="veh_passenger"/>
    <trip id="veh191" depart="89.78" departLane="best" departSpeed="max" from="-191432325#2" to="197492564#2" type="veh_passenger"/>
    <trip id="veh192" depart="90.25" departLane="best" departSpeed="max" from="27294246#0" to="191432325#2" type="veh_passenger"/>
    <trip id="veh193" depart="90.72" departLane="best" departSpeed="max" from="-197492564#2" to="27295090#1" type="veh_passenger"/>
    <trip id="veh194" depart="91.19" departLane="best" departSpeed="max" from="27294246#0" to="108160105" type="veh_passenger"/>
    <trip id="veh195" depart="91.66" departLane="best" departSpeed="max" from="162751446" to="108160105" type="veh_passenger"/>
    <trip id="veh196" depart="92.13" departLane="best" departSpeed="max" from="27294246#0" to="202186944" type="veh_passenger"/>
    <trip id="veh197" depart="92.60" departLane="best" departSpeed="max" from="191432325#0" to="108697072" type="veh_passenger"/>
    <trip id="veh198" depart="93.07" departLane="best" departSpeed="max" from="-27295090#1" to="202186944" type="veh_passenger"/>
    <trip id="veh199" depart="93.54" departLane="best" departSpeed="max" from="108160061" to="197492564#2" type="veh_passenger"/>
    <trip id="veh200" depart="94.01" departLane="best" departSpeed="max" from="-27295090#1" to="202186944" type="veh_passenger"/>
    <trip id="veh202" depart="94.95" departLane="best" departSpeed="max" from="162751446" to="191432325#2" type="veh_passenger"/>
    <trip id="veh203" depart="95.42" departLane="best" departSpeed="max" from="27294246#0" to="-191432325#0" type="veh_passenger"/>
    <trip id="veh204" depart="95.89" departLane="best" departSpeed="max" from="191432325#0" to="-27294246#0" type="veh_passenger"/>
    <trip id="veh205" depart="96.36" departLane="best" departSpeed="max" from="-191432325#2" to="197492564#2" type="veh_passenger"/>
    <trip id="veh206" depart="96.83" departLane="best" departSpeed="max" from="162751446" to="197492564#2" type="veh_passenger"/>
    <trip id="veh207" depart="97.30" departLane="best" departSpeed="max" from="162751446" to="197492564#2" type="veh_passenger"/>
    <trip id="veh208" depart="97.77" departLane="best" departSpeed="max" from="-191432325#2" to="-27294246#0" type="veh_passenger"/>
    <trip id="veh209" depart="98.24" departLane="best" departSpeed="max" from="191432325#0" to="108160105" type="veh_passenger"/>
    <trip id="veh210" depart="98.71" departLane="best" departSpeed="max" from="164026013" to="108697072" type="veh_passenger"/>
    <trip id="veh211" depart="99.18" departLane="best" departSpeed="max" from="191432325#0" to="108160105" type="veh_passenger"/>
    <trip id="veh212" depart="99.65" departLane="best" departSpeed="max" from="191432325#0" to="-27294246#0" type="veh_passenger"/>
    <trip id="veh213" depart="100.12" departLane="best" departSpeed="max" from="-197492564#2" to="-191432325#0" type="veh_passenger"/>
    <trip id="veh214" depart="100.59" departLane="best" departSpeed="max" from="162751446" to="197492564#2" type="veh_passenger"/>
    <trip id="veh215" depart="101.06" departLane="best" departSpeed="max" from="-197492564#2" to="-27294246#0" type="veh_passenger"/>
    <trip id="veh216" depart="101.53" departLane="best" departSpeed="max" from="162751446" to="197492564#2" type="veh_passenger"/>
    <trip id="veh217" depart="102.00" departLane="best" departSpeed="max" from="314115313#0" to="172445005#1" type="veh_passenger"/>
    <trip id="veh218" depart="102.47" departLane="best" departSpeed="max" from="-197492564#2" to="-27294246#0" type="veh_passenger"/>
    <trip id="veh220" depart="103.41" departLane="best" departSpeed="max" from="162751446" to="-27294246#0" type="veh_passenger"/>
    <trip id="veh221" depart="103.88" departLane="best" departSpeed="max" from="314115313#0" to="172445005#1" type="veh_passenger"/>
    <trip id="veh222" depart="104.35" departLane="best" departSpeed="max" from="27294246#0" to="108697072" type="veh_passenger"/>
    <trip id="veh223" depart="104.82" departLane="best" departSpeed="max" from="27294246#0" to="172445005#1" type="veh_passenger"/>
    <trip id="veh225" depart="105.76" departLane="best" departSpeed="max" from="314115313#0" to="108697072" type="veh_passenger"/>
    <trip id="veh226" depart="106.23" departLane="best" departSpeed="max" from="27294246#0" to="108697072" type="veh_passenger"/>
    <trip id="veh227" depart="106.70" departLane="best" departSpeed="max" from="314115313#0" to="-191432325#0" type="veh_passenger"/>
    <trip id="veh228" depart="107.17" departLane="best" departSpeed="max" from="-197492564#2" to="-27294246#0" type="veh_passenger"/>
    <trip id="veh230" depart="108.11" departLane="best" departSpeed="max" from="-191432325#2" to="108697072" type="veh_passenger"/>
    <trip id="veh231" depart="108.58" departLane="best" departSpeed="max" from="164026013" to="-27294246#0" type="veh_passenger"/>
    <trip id="veh232" depart="109.05" departLane="best" departSpeed="max" from="-27295090#1" to="197492564#2" type="veh_passenger"/>
    <trip id="veh233" depart="109.52" departLane="best" departSpeed="max" from="191432325#0" to="108697072" type="veh_passenger"/>
    <trip id="veh234" depart="109.99" departLane="best" departSpeed="max" from="27294246#0" to="191432325#2" type="veh_passenger"/>
    <trip id="veh235" depart="110.46" departLane="best" departSpeed="max" from="164026013" to="27295090#1" type="veh_passenger"/>
    <trip id="veh236" depart="110.93" departLane="best" departSpeed="max" from="164026013" to="27295090#1" type="veh_passenger"/>
    <trip id="veh238" depart="111.87" departLane="best" departSpeed="max" from="-197492564#2" to="108160105" type="veh_passenger"/>
    <trip id="veh239" depart="112.34" departLane="best" departSpeed="max" from="191432325#0" to="172445005#1" type="veh_passenger"/>
    <trip id="veh240" depart="112.81" departLane="best" departSpeed="max" from="314115313#0" to="172445005#1" type="veh_passenger"/>
    <trip id="veh242" depart="113.75" departLane="best" departSpeed="max" from="-191432325#2" to="108697072" type="veh_passenger"/>