<?xml version="1.0" encoding="UTF-8"?>
<!-- generated on 2020-04-20 11:09:51.101245 by $Id$
  options: 
-->
<routes xmlns:xsi="http://www.w3.org/2001/XMLSchema-instance" xsi:noNamespaceSchemaLocation="http://sumo.dlr.de/xsd/routes_file.xsd">
    <vType id="ped_pedestrian" vClass="pedestrian"/>
    <person id="ped0" depart="0.00" type="ped_pedestrian">
        <walk from="164026015#1" to="-152741333"/>
    </person>
    <person id="ped1" depart="32.63" type="ped_pedestrian">
        <walk from="-191432327#1" to="-191432325#2"/>
    </person>
    <person id="ped2" depart="65.26" type="ped_pedestrian">
        <walk from="191432325#2" to="191430259"/>
    </person>
    <person id="ped3" depart="97.89" type="ped_pedestrian">
        <walk from="27294246#0" to="-164026015#0"/>
    </person>
    <person id="ped4" depart="130.52" type="ped_pedestrian">
        <walk from="-27294246#1" to="-164026013"/>
    </person>
    <person id="ped5" depart="163.15" type="ped_pedestrian">
        <walk from="-191432325#2" to="108160105"/>
    </person>
    <person id="ped6" depart="195.78" type="ped_pedestrian">
        <walk from="-152741333" to="-191432325#0"/>
    </person>
    <person id="ped7" depart="228.40" type="ped_pedestrian">
        <walk from="191430120" to="164026013"/>
    </person>
    <person id="ped8" depart="261.03" type="ped_pedestrian">
        <walk from="-191432325#2" to="164026014"/>
    </person>
    <person id="ped9" depart="293.66" type="ped_pedestrian">
        <walk from="191432327#1" to="-152741333"/>
    </person>
    <person id="ped10" depart="326.29" type="ped_pedestrian">
        <walk from="191432327#1" to="191430259"/>
    </person>
    <person id="ped11" depart="358.92" type="ped_pedestrian">
        <walk from="-197492564#1" to="-191430120"/>
    </person>
    <person id="ped12" depart="391.55" type="ped_pedestrian">
        <walk from="27295090#0" to="-197492564#1"/>
    </person>
    <person id="ped13" depart="424.18" type="ped_pedestrian">
        <walk from="-164026015#0" to="-164026015#0"/>
    </person>
    <person id="ped14" depart="456.81" type="ped_pedestrian">
        <walk from="197492564#1" to="164026015#0"/>
    </person>
    <person id="ped15" depart="489.44" type="ped_pedestrian">
        <walk from="191432327#1" to="191432325#2"/>
    </person>
    <person id="ped16" depart="522.07" type="ped_pedestrian">
        <walk from="152741333" to="27295090#1"/>
    </person>
    <person id="ped17" depart="554.70" type="ped_pedestrian">
        <walk from="-27294246#0" to="164026013"/>
    </person>
    <person id="ped18" depart="587.33" type="ped_pedestrian">
        <walk from="197492564#0" to="164026015#0"/>
    </person>
    <person id="ped19" depart="619.96" type="ped_pedestrian">
        <walk from="197492564#1" to="164026014"/>
    </person>
    <person id="ped20" depart="652.59" type="ped_pedestrian">
        <walk from="191432325#0" to="-164026013"/>
    </person>
    <person id="ped21" depart="685.21" type="ped_pedestrian">
        <walk from="-191432325#2" to="-191432327#1"/>
    </person>
    <person id="ped22" depart="717.84" type="ped_pedestrian">
        <walk from="-164026014" to="-191432325#2"/>
    </person>
    <person id="ped23" depart="750.47" type="ped_pedestrian">
        <walk from="-164026015#0" to="-191432327#1"/>
    </person>
    <person id="ped24" depart="783.10" type="ped_pedestrian">
        <walk from="164026015#1" to="-197492564#2"/>
    </person>
    <person id="ped25" depart="815.73" type="ped_pedestrian">
        <walk from="-197492564#2" to="-191432325#0"/>
    </person>
    <person id="ped26" depart="848.36" type="ped_pedestrian">
        <walk from="-191432327#0" to="27294246#1"/>
    </person>
    <person id="ped27" depart="880.99" type="ped_pedestrian">
        <walk from="164026015#1" to="164026015#0"/>
    </person>
    <person id="ped28" depart="913.62" type="ped_pedestrian">
        <walk from="-191430259" to="191432325#0"/>
    </person>
    <person id="ped29" depart="946.25" type="ped_pedestrian">
        <walk from="-191430259" to="-27294246#0"/>
    </person>
    <person id="ped30" depart="978.88" type="ped_pedestrian">
        <walk from="27295090#1" to="164026015#1"/>
    </person>
    <person id="ped31" depart="1011.51" type="ped_pedestrian">
        <walk from="164026013" to="191430259"/>
    </person>
    <person id="ped32" depart="1044.14" type="ped_pedestrian">
        <walk from="197492564#1" to="191432327#0"/>
    </person>
    <person id="ped33" depart="1076.77" type="ped_pedestrian">
        <walk from="-191432325#2" to="-164026013"/>
    </person>
    <person id="ped34" depart="1109.40" type="ped_pedestrian">
        <walk from="-197492564#0" to="-191432327#0"/>
    </person>
    <person id="ped35" depart="1142.02" type="ped_pedestrian">
        <walk from="-191432325#0" to="27294246#1"/>
    </person>
    <person id="ped36" depart="1174.65" type="ped_pedestrian">
        <walk from="197492564#2" to="-197492564#0"/>
    </person>
    <person id="ped37" depart="1207.28" type="ped_pedestrian">
        <walk from="191430120" to="-27294246#0"/>
    </person>
    <person id="ped38" depart="1239.91" type="ped_pedestrian">
        <walk from="27294246#0" to="-27295090#0"/>
    </person>
    <person id="ped39" depart="1272.54" type="ped_pedestrian">
        <walk from="-191432327#0" to="-191432327#0"/>
    </person>
    <person id="ped40" depart="1305.17" type="ped_pedestrian">
        <walk from="164026013" to="-191432327#0"/>
    </person>
    <person id="ped41" depart="1337.80" type="ped_pedestrian">
        <walk from="164026014" to="27294246#0"/>
    </person>
    <person id="ped42" depart="1370.43" type="ped_pedestrian">
        <walk from="-27294246#0" to="-191432325#2"/>
    </person>
    <person id="ped43" depart="1403.06" type="ped_pedestrian">
        <walk from="27295090#1" to="108160105"/>
    </person>
    <person id="ped44" depart="1435.69" type="ped_pedestrian">
        <walk from="-164026015#0" to="-164026013"/>
    </person>
    <person id="ped45" depart="1468.32" type="ped_pedestrian">
        <walk from="-164026015#1" to="164026015#1"/>
    </person>
    <person id="ped46" depart="1500.95" type="ped_pedestrian">
        <walk from="191432327#1" to="-27294246#1"/>
    </person>
    <person id="ped47" depart="1533.58" type="ped_pedestrian">
        <walk from="-164026014" to="-27294246#0"/>
    </person>
    <person id="ped48" depart="1566.20" type="ped_pedestrian">
        <walk from="27295090#1" to="152741333"/>
    </person>
    <person id="ped49" depart="1598.83" type="ped_pedestrian">
        <walk from="27295090#0" to="197492564#1"/>
    </person>
    <person id="ped50" depart="1631.46" type="ped_pedestrian">
        <walk from="-152741333" to="191432325#0"/>
    </person>
    <person id="ped51" depart="1664.09" type="ped_pedestrian">
        <walk from="191430259" to="152741333"/>
    </person>
    <person id="ped52" depart="1696.72" type="ped_pedestrian">
        <walk from="-191432327#0" to="164026015#1"/>
    </person>
    <person id="ped53" depart="1729.35" type="ped_pedestrian">
        <walk from="-164026015#1" to="-27295090#0"/>
    </person>
    <person id="ped54" depart="1761.98" type="ped_pedestrian">
        <walk from="-27295090#0" to="27295090#0"/>
    </person>
    <person id="ped55" depart="1794.61" type="ped_pedestrian">
        <walk from="197492564#2" to="-191432327#0"/>
    </person>
    <person id="ped56" depart="1827.24" type="ped_pedestrian">
        <walk from="108160105" to="-191430259"/>
    </person>
    <person id="ped57" depart="1859.87" type="ped_pedestrian">
        <walk from="27294246#0" to="197492564#2"/>
    </person>
    <person id="ped58" depart="1892.50" type="ped_pedestrian">
        <walk from="-197492564#0" to="164026015#1"/>
    </person>
    <person id="ped59" depart="1925.13" type="ped_pedestrian">
        <walk from="164026015#0" to="-191430120"/>
    </person>
    <person id="ped60" depart="1957.76" type="ped_pedestrian">
        <walk from="191432327#0" to="152741333"/>
    </person>
    <person id="ped61" depart="1990.39" type="ped_pedestrian">
        <walk from="191432327#0" to="152741333"/>
    </person>
    <person id="ped62" depart="2023.01" type="ped_pedestrian">
        <walk from="-152741333" to="-197492564#0"/>
    </person>
    <person id="ped63" depart="2055.64" type="ped_pedestrian">
        <walk from="-152741333" to="27294246#1"/>
    </person>
    <person id="ped64" depart="2088.27" type="ped_pedestrian">
        <walk from="197492564#2" to="197492564#0"/>
    </person>
    <person id="ped65" depart="2120.90" type="ped_pedestrian">
        <walk from="-197492564#0" to="-164026014"/>
    </person>
    <person id="ped66" depart="2153.53" type="ped_pedestrian">
        <walk from="197492564#2" to="27295090#0"/>
    </person>
    <person id="ped67" depart="2186.16" type="ped_pedestrian">
        <walk from="-164026015#0" to="-27295090#1"/>
    </person>
    <person id="ped68" depart="2218.79" type="ped_pedestrian">
        <walk from="-164026014" to="191432327#0"/>
    </person>
    <person id="ped69" depart="2251.42" type="ped_pedestrian">
        <walk from="191432327#0" to="-164026015#1"/>
    </person>
    <person id="ped70" depart="2284.05" type="ped_pedestrian">
        <walk from="-27295090#1" to="164026013"/>
    </person>
    <person id="ped71" depart="2316.68" type="ped_pedestrian">
        <walk from="-191432327#0" to="197492564#2"/>
    </person>
    <person id="ped72" depart="2349.31" type="ped_pedestrian">
        <walk from="-27294246#1" to="-191432325#0"/>
    </person>
    <person id="ped73" depart="2381.94" type="ped_pedestrian">
        <walk from="152741333" to="191432325#2"/>
    </person>
    <person id="ped74" depart="2414.57" type="ped_pedestrian">
        <walk from="-191432325#0" to="-197492564#0"/>
    </person>
    <person id="ped75" depart="2447.19" type="ped_pedestrian">
        <walk from="27295090#1" to="191430120"/>
    </person>
    <person id="ped76" depart="2479.82" type="ped_pedestrian">
        <walk from="-27295090#0" to="152741333"/>
    </person>
    <person id="ped77" depart="2512.45" type="ped_pedestrian">
        <walk from="-164026015#1" to="-191432325#2"/>
    </person>
    <person id="ped78" depart="2545.08" type="ped_pedestrian">
        <walk from="-197492564#1" to="164026014"/>
    </person>
    <person id="ped79" depart="2577.71" type="ped_pedestrian">
        <walk from="-191432325#2" to="-191432325#2"/>
    </person>
    <person id="ped80" depart="2610.34" type="ped_pedestrian">
        <walk from="-164026014" to="164026015#1"/>
    </person>
    <person id="ped81" depart="2642.97" type="ped_pedestrian">
        <walk from="-191432325#2" to="27294246#0"/>
    </person>
    <person id="ped82" depart="2675.60" type="ped_pedestrian">
        <walk from="197492564#1" to="-164026014"/>
    </person>
    <person id="ped83" depart="2708.23" type="ped_pedestrian">
        <walk from="-191432325#2" to="191430120"/>
    </person>
    <person id="ped84" depart="2740.86" type="ped_pedestrian">
        <walk from="-191432325#0" to="-164026015#1"/>
    </person>
    <person id="ped85" depart="2773.49" type="ped_pedestrian">
        <walk from="27294246#1" to="164026014"/>
    </person>
    <person id="ped86" depart="2806.12" type="ped_pedestrian">
        <walk from="-27295090#1" to="191432327#1"/>
    </person>
    <person id="ped87" depart="2838.75" type="ped_pedestrian">
        <walk from="191432327#1" to="-191432325#0"/>
    </person>
    <person id="ped88" depart="2871.38" type="ped_pedestrian">
        <walk from="-164026015#0" to="-27294246#1"/>
    </person>
    <person id="ped89" depart="2904.00" type="ped_pedestrian">
        <walk from="-27294246#1" to="-27295090#1"/>
    </person>
    <person id="ped90" depart="2936.63" type="ped_pedestrian">
        <walk from="191432325#0" to="191430120"/>
    </person>
    <person id="ped91" depart="2969.26" type="ped_pedestrian">
        <walk from="27295090#1" to="-164026015#0"/>
    </person>
    <person id="ped92" depart="3001.89" type="ped_pedestrian">
        <walk from="-27294246#0" to="-197492564#1"/>
    </person>
    <person id="ped93" depart="3034.52" type="ped_pedestrian">
        <walk from="197492564#1" to="-191432327#0"/>
    </person>
    <person id="ped94" depart="3067.15" type="ped_pedestrian">
        <walk from="-191432325#0" to="-27295090#0"/>
    </person>
    <person id="ped95" depart="3099.78" type="ped_pedestrian">
        <walk from="-27294246#1" to="-191432327#1"/>
    </person>
    <person id="ped96" depart="3132.41" type="ped_pedestrian">
        <walk from="-191432327#0" to="27294246#1"/>
    </person>
    <person id="ped97" depart="3165.04" type="ped_pedestrian">
        <walk from="-27295090#0" to="197492564#1"/>
    </person>
    <person id="ped98" depart="3197.67" type="ped_pedestrian">
        <walk from="164026013" to="-164026013"/>
    </person>
    <person id="ped99" depart="3230.30" type="ped_pedestrian">
        <walk from="27295090#1" to="197492564#0"/>
    </person>
    <person id="ped100" depart="3262.93" type="ped_pedestrian">
        <walk from="27295090#0" to="27294246#1"/>
    </person>
    <person id="ped101" depart="3295.56" type="ped_pedestrian">
        <walk from="197492564#1" to="-191430259"/>
    </person>
    <person id="ped102" depart="3328.19" type="ped_pedestrian">
        <walk from="-27295090#1" to="-191432325#0"/>
    </person>
    <person id="ped103" depart="3360.81" type="ped_pedestrian">
        <walk from="-27294246#0" to="-164026014"/>
    </person>
    <person id="ped104" depart="3393.44" type="ped_pedestrian">
        <walk from="-27294246#0" to="27295090#1"/>
    </person>
    <person id="ped105" depart="3426.07" type="ped_pedestrian">
        <walk from="-191432327#0" to="191432327#1"/>
    </person>
    <person id="ped106" depart="3458.70" type="ped_pedestrian">
        <walk from="-27295090#0" to="-27294246#1"/>
    </person>
    <person id="ped107" depart="3491.33" type="ped_pedestrian">
        <walk from="27295090#0" to="27295090#1"/>
    </person>
    <person id="ped108" depart="3523.96" type="ped_pedestrian">
        <walk from="164026013" to="191432325#0"/>
    </person>
    <person id="ped109" depart="3556.59" type="ped_pedestrian">
        <walk from="-191430120" to="-191432327#1"/>
    </person>
    <person id="ped110" depart="3589.22" type="ped_pedestrian">
        <walk from="27295090#0" to="164026014"/>
    </person>
</routes>
