<?xml version="1.0" encoding="UTF-8"?>

<!-- generated on Mon Apr 20 11:09:49 2020 by Eclipse SUMO netconvert Version 1.1.0
<configuration xmlns:xsi="http://www.w3.org/2001/XMLSchema-instance" xsi:noNamespaceSchemaLocation="http://sumo.dlr.de/xsd/netconvertConfiguration.xsd">

    <input>
        <type-files value="/usr/share/sumo/data/typemap/osmNetconvert.typ.xml,/usr/share/sumo/data/typemap/osmNetconvertUrbanDe.typ.xml,/usr/share/sumo/data/typemap/osmNetconvertPedestrians.typ.xml"/>
        <osm-files value="osm_bbox.osm.xml"/>
    </input>

    <output>
        <output-file value="osm.net.xml"/>
        <output.street-names value="true"/>
        <output.original-names value="true"/>
    </output>

    <projection>
        <proj.utm value="true"/>
    </projection>

    <processing>
        <geometry.remove value="true"/>
        <roundabouts.guess value="true"/>
    </processing>

    <tls_building>
        <tls.discard-simple value="true"/>
        <tls.join value="true"/>
        <tls.guess-signals value="true"/>
        <tls.default-type value="actuated"/>
    </tls_building>

    <ramp_guessing>
        <ramps.guess value="true"/>
    </ramp_guessing>

    <junctions>
        <junctions.join value="true"/>
        <junctions.corner-detail value="5"/>
    </junctions>

    <pedestrian>
        <crossings.guess value="true"/>
    </pedestrian>

    <report>
        <verbose value="true"/>
    </report>

</configuration>
-->

<net version="1.1" junctionCornerDetail="5" walkingareas="true" limitTurnSpeed="5.50" xmlns:xsi="http://www.w3.org/2001/XMLSchema-instance" xsi:noNamespaceSchemaLocation="http://sumo.dlr.de/xsd/net_file.xsd">

    <location netOffset="-233767.83,-1625780.68" convBoundary="0.00,0.00,1451.83,1418.03" origBoundary="-17.473795,14.692598,-17.458906,14.705521" projParameter="+proj=utm +zone=28 +ellps=WGS84 +datum=WGS84 +units=m +no_defs"/>

    <type id="highway.bridleway" priority="1" numLanes="1" speed="2.78" allow="pedestrian" oneway="1" width="2.00"/>
    <type id="highway.bus_guideway" priority="1" numLanes="1" speed="13.89" allow="bus" oneway="1"/>
    <type id="highway.cycleway" priority="1" numLanes="1" speed="8.33" allow="bicycle" oneway="0" width="1.00"/>
    <type id="highway.footway" priority="1" numLanes="1" speed="2.78" allow="pedestrian" oneway="1" width="2.00"/>
    <type id="highway.ford" priority="1" numLanes="1" speed="2.78" allow="army" oneway="0"/>
    <type id="highway.living_street" priority="3" numLanes="1" speed="2.78" disallow="tram rail_urban rail rail_electric ship" oneway="0"/>
    <type id="highway.motorway" priority="13" numLanes="2" speed="27.78" allow="private emergency authority army vip passenger hov taxi bus coach delivery truck trailer motorcycle evehicle custom1 custom2" oneway="1"/>
    <type id="highway.motorway_link" priority="12" numLanes="1" speed="16.67" allow="private emergency authority army vip passenger hov taxi bus coach delivery truck trailer motorcycle evehicle custom1 custom2" oneway="1"/>
    <type id="highway.path" priority="1" numLanes="1" speed="2.78" allow="bicycle pedestrian" oneway="1" width="2.00"/>
    <type id="highway.pedestrian" priority="1" numLanes="1" speed="2.78" allow="pedestrian" oneway="1" width="2.00"/>
    <type id="highway.primary" priority="9" numLanes="2" speed="13.89" disallow="tram rail_urban rail rail_electric pedestrian ship" oneway="0" sidewalkWidth="3.00"/>
    <type id="highway.primary_link" priority="8" numLanes="1" speed="13.89" disallow="tram rail_urban rail rail_electric pedestrian ship" oneway="0" sidewalkWidth="3.00"/>
    <type id="highway.raceway" priority="14" numLanes="2" speed="83.33" allow="vip" oneway="0"/>
    <type id="highway.residential" priority="4" numLanes="1" speed="13.89" disallow="tram rail_urban rail rail_electric pedestrian ship" oneway="0" sidewalkWidth="2.00"/>
    <type id="highway.secondary" priority="7" numLanes="2" speed="13.89" disallow="tram rail_urban rail rail_electric pedestrian ship" oneway="0" sidewalkWidth="3.00"/>
    <type id="highway.secondary_link" priority="6" numLanes="1" speed="13.89" disallow="tram rail_urban rail rail_electric pedestrian ship" oneway="0" sidewalkWidth="3.00"/>
    <type id="highway.service" priority="2" numLanes="1" speed="5.56" allow="delivery bicycle pedestrian" oneway="0"/>
    <type id="highway.stairs" priority="1" numLanes="1" speed="1.39" allow="pedestrian" oneway="1" width="2.00"/>
    <type id="highway.step" priority="1" numLanes="1" speed="1.39" allow="pedestrian" oneway="1" width="2.00"/>
    <type id="highway.steps" priority="1" numLanes="1" speed="1.39" allow="pedestrian" oneway="1" width="2.00"/>
    <type id="highway.tertiary" priority="6" numLanes="1" speed="13.89" disallow="tram rail_urban rail rail_electric pedestrian ship" oneway="0" sidewalkWidth="3.00"/>
    <type id="highway.tertiary_link" priority="5" numLanes="1" speed="13.89" disallow="tram rail_urban rail rail_electric pedestrian ship" oneway="0" sidewalkWidth="2.00"/>
    <type id="highway.track" priority="1" numLanes="1" speed="5.56" disallow="tram rail_urban rail rail_electric ship" oneway="0"/>
    <type id="highway.trunk" priority="11" numLanes="2" speed="13.89" disallow="tram rail_urban rail rail_electric bicycle pedestrian ship" oneway="0"/>
    <type id="highway.trunk_link" priority="10" numLanes="1" speed="13.89" disallow="tram rail_urban rail rail_electric bicycle pedestrian ship" oneway="0"/>
    <type id="highway.unclassified" priority="5" numLanes="1" speed="13.89" disallow="tram rail_urban rail rail_electric pedestrian ship" oneway="0" sidewalkWidth="2.00"/>
    <type id="highway.unsurfaced" priority="1" numLanes="1" speed="8.33" disallow="tram rail_urban rail rail_electric ship" oneway="0"/>
    <type id="railway.light_rail" priority="15" numLanes="1" speed="27.78" allow="rail_urban" oneway="1"/>
    <type id="railway.preserved" priority="15" numLanes="1" speed="27.78" allow="rail" oneway="1"/>
    <type id="railway.rail" priority="15" numLanes="1" speed="83.33" allow="rail rail_electric" oneway="1"/>
    <type id="railway.subway" priority="15" numLanes="1" speed="27.78" allow="rail_urban" oneway="1"/>
    <type id="railway.tram" priority="15" numLanes="1" speed="13.89" allow="tram" oneway="1"/>

    <edge id=":1241329783_0" function="internal">
        <lane id=":1241329783_0_0" index="0" disallow="tram rail_urban rail rail_electric bicycle pedestrian ship" speed="5.89" length="7.66" shape="547.21,511.25 548.44,512.45 549.96,512.80 551.77,512.29 553.88,510.94"/>
    </edge>
    <edge id=":1241329783_1" function="internal">
        <lane id=":1241329783_1_0" index="0" disallow="tram rail_urban rail rail_electric pedestrian ship" speed="3.65" length="4.67" shape="547.21,511.25 547.21,512.69 546.76,513.46 545.87,513.57 544.54,513.02"/>
    </edge>
    <edge id=":1241329783_2" function="internal">
        <lane id=":1241329783_2_0" index="0" disallow="tram rail_urban rail rail_electric pedestrian ship" speed="6.62" length="3.39" shape="543.01,520.28 544.57,518.44 544.95,517.55"/>
    </edge>
    <edge id=":1241329783_3" function="internal">
        <lane id=":1241329783_3_0" index="0" disallow="tram rail_urban rail rail_electric bicycle pedestrian ship" speed="13.89" length="14.20" shape="543.01,520.28 546.11,517.37 548.29,515.43 550.54,513.58 553.88,510.94"/>
        <lane id=":1241329783_3_1" index="1" disallow="tram rail_urban rail rail_electric bicycle pedestrian ship" speed="13.89" length="14.20" shape="545.20,522.61 548.25,519.76 550.38,517.86 552.59,516.04 555.86,513.45"/>
    </edge>
    <edge id=":1241329783_5" function="internal">
        <lane id=":1241329783_5_0" index="0" disallow="tram rail_urban rail rail_electric pedestrian ship" speed="6.62" length="4.78" shape="544.95,517.55 545.35,516.62 545.34,514.81 544.54,513.02"/>
    </edge>
    <edge id=":1241329783_c0" function="crossing" crossingEdges="-164026013 164026013">
        <lane id=":1241329783_c0_0" index="0" allow="pedestrian" speed="1.00" length="6.40" width="4.00" shape="544.32,515.57 549.65,512.03"/>
    </edge>
    <edge id=":1241329783_w0" function="walkingarea">
        <lane id=":1241329783_w0_0" index="0" allow="pedestrian" speed="1.00" length="2.24" width="4.00" shape="550.21,509.26 548.54,510.36 549.00,510.84 549.56,511.09 550.23,511.09 551.01,510.86 551.89,510.39"/>
    </edge>
    <edge id=":1241329783_w1" function="walkingarea">
        <lane id=":1241329783_w1_0" index="0" allow="pedestrian" speed="1.00" length="2.24" width="4.00" shape="543.21,513.90 541.54,515.01 542.76,518.21 543.35,517.31 543.70,516.43 543.79,515.57 543.63,514.73"/>
    </edge>
    <edge id=":1241329921_0" function="internal">
        <lane id=":1241329921_0_0" index="0" disallow="tram rail_urban rail rail_electric pedestrian ship" speed="12.06" length="11.08" shape="562.02,542.80 559.81,545.15 558.62,547.09 558.04,549.32 557.67,552.57"/>
    </edge>
    <edge id=":1241329921_1" function="internal">
        <lane id=":1241329921_1_0" index="0" disallow="tram rail_urban rail rail_electric bicycle pedestrian ship" speed="13.89" length="11.39" shape="562.02,542.80 554.04,550.87"/>
        <lane id=":1241329921_1_1" index="1" disallow="tram rail_urban rail rail_electric bicycle pedestrian ship" speed="13.89" length="11.39" shape="559.79,540.51 551.75,548.63"/>
    </edge>
    <edge id=":1655234674_0" function="internal">
        <lane id=":1655234674_0_0" index="0" disallow="tram rail_urban rail rail_electric bicycle pedestrian ship" speed="5.89" length="7.23" shape="749.68,370.42 748.41,369.44 746.92,369.24 745.22,369.82 743.32,371.17"/>
    </edge>
    <edge id=":1655234674_1" function="internal">
        <lane id=":1655234674_1_0" index="0" disallow="tram rail_urban rail rail_electric pedestrian ship" speed="3.65" length="4.67" shape="749.68,370.42 749.51,368.99 749.85,368.16 750.72,367.94 752.11,368.33"/>
    </edge>
    <edge id=":1655234674_2" function="internal">
        <lane id=":1655234674_2_0" index="0" disallow="tram rail_urban rail rail_electric pedestrian ship" speed="5.98" length="7.35" shape="753.96,362.03 752.30,363.80 751.44,365.45 751.38,366.95 752.11,368.33"/>
    </edge>
    <edge id=":1655234674_3" function="internal">
        <lane id=":1655234674_3_0" index="0" disallow="tram rail_urban rail rail_electric bicycle pedestrian ship" speed="13.89" length="13.78" shape="753.96,362.03 743.32,371.17"/>
        <lane id=":1655234674_3_1" index="1" disallow="tram rail_urban rail rail_electric bicycle pedestrian ship" speed="13.89" length="13.78" shape="751.84,359.64 741.56,368.46"/>
    </edge>
    <edge id=":1655234674_c0" function="crossing" crossingEdges="-191432327#1 191432327#1">
        <lane id=":1655234674_c0_0" index="0" allow="pedestrian" speed="1.00" length="6.40" width="4.00" shape="752.02,365.77 747.16,369.95"/>
    </edge>
    <edge id=":1655234674_w0" function="walkingarea">
        <lane id=":1655234674_w0_0" index="0" allow="pedestrian" speed="1.00" length="2.24" width="4.00" shape="746.95,372.77 748.47,371.46 747.99,371.07 747.44,370.89 746.79,370.94 746.07,371.20 745.26,371.68"/>
    </edge>
    <edge id=":1655234674_w1" function="walkingarea">
        <lane id=":1655234674_w1_0" index="0" allow="pedestrian" speed="1.00" length="2.24" width="4.00" shape="753.32,367.29 754.84,365.99 754.16,364.07 753.53,364.85 753.13,365.56 752.96,366.20 753.03,366.78"/>
    </edge>
    <edge id=":1655234725_0" function="internal">
        <lane id=":1655234725_0_0" index="0" disallow="tram rail_urban rail rail_electric pedestrian ship" speed="13.89" length="14.08" shape="872.55,528.69 861.69,537.66"/>
    </edge>
    <edge id=":1655234725_1" function="internal">
        <lane id=":1655234725_1_0" index="0" disallow="tram rail_urban rail rail_electric pedestrian ship" speed="8.27" length="5.42" shape="872.55,528.69 869.35,530.49 867.61,530.69"/>
    </edge>
    <edge id=":1655234725_2" function="internal">
        <lane id=":1655234725_2_0" index="0" disallow="tram rail_urban rail rail_electric pedestrian ship" speed="3.65" length="2.34" shape="872.55,528.69 871.11,528.80 870.30,528.42"/>
    </edge>
    <edge id=":1655234725_9" function="internal">
        <lane id=":1655234725_9_0" index="0" disallow="tram rail_urban rail rail_electric pedestrian ship" speed="8.27" length="8.71" shape="867.61,530.69 866.19,530.86 863.07,529.79 859.99,527.28"/>
    </edge>
    <edge id=":1655234725_10" function="internal">
        <lane id=":1655234725_10_0" index="0" disallow="tram rail_urban rail rail_electric pedestrian ship" speed="3.65" length="2.34" shape="870.30,528.42 870.13,527.54 870.58,526.17"/>
    </edge>
    <edge id=":1655234725_3" function="internal">
        <lane id=":1655234725_3_0" index="0" disallow="tram rail_urban rail rail_electric pedestrian ship" speed="6.83" length="9.32" shape="862.31,525.08 864.37,526.77 866.43,527.52 868.50,527.32 870.58,526.17"/>
    </edge>
    <edge id=":1655234725_4" function="internal">
        <lane id=":1655234725_4_0" index="0" disallow="tram rail_urban rail rail_electric pedestrian ship" speed="7.96" length="14.51" shape="862.31,525.08 864.62,528.34 865.29,531.53 864.31,534.63 861.69,537.66"/>
    </edge>
    <edge id=":1655234725_5" function="internal">
        <lane id=":1655234725_5_0" index="0" disallow="tram rail_urban rail rail_electric pedestrian ship" speed="3.65" length="4.67" shape="862.31,525.08 862.55,526.50 862.25,527.34 861.39,527.60 859.99,527.28"/>
    </edge>
    <edge id=":1655234725_6" function="internal">
        <lane id=":1655234725_6_0" index="0" disallow="tram rail_urban rail rail_electric pedestrian ship" speed="6.46" length="4.90" shape="859.60,535.24 861.25,533.33 861.87,531.36 861.81,531.06"/>
    </edge>
    <edge id=":1655234725_7" function="internal">
        <lane id=":1655234725_7_0" index="0" disallow="tram rail_urban rail rail_electric pedestrian ship" speed="13.89" length="14.24" shape="859.60,535.24 870.58,526.17"/>
    </edge>
    <edge id=":1655234725_8" function="internal">
        <lane id=":1655234725_8_0" index="0" disallow="tram rail_urban rail rail_electric pedestrian ship" speed="3.65" length="2.34" shape="859.60,535.24 861.03,535.06 861.85,535.40"/>
    </edge>
    <edge id=":1655234725_11" function="internal">
        <lane id=":1655234725_11_0" index="0" disallow="tram rail_urban rail rail_electric pedestrian ship" speed="6.46" length="4.29" shape="861.81,531.06 861.45,529.35 859.99,527.28"/>
    </edge>
    <edge id=":1655234725_12" function="internal">
        <lane id=":1655234725_12_0" index="0" disallow="tram rail_urban rail rail_electric pedestrian ship" speed="3.65" length="2.34" shape="861.85,535.40 862.08,536.27 861.69,537.66"/>
    </edge>
    <edge id=":1655234725_c0" function="crossing" crossingEdges="27295090#1 -27295090#1">
        <lane id=":1655234725_c0_0" index="0" allow="pedestrian" speed="1.00" length="6.40" width="4.00" shape="868.02,526.14 871.96,531.18"/>
    </edge>
    <edge id=":1655234725_c1" function="crossing" crossingEdges="152741333 -152741333">
        <lane id=":1655234725_c1_0" index="0" allow="pedestrian" speed="1.00" length="6.40" width="4.00" shape="860.20,529.83 864.84,525.43"/>
    </edge>
    <edge id=":1655234725_c2" function="crossing" crossingEdges="-27295090#0 27295090#0">
        <lane id=":1655234725_c2_0" index="0" allow="pedestrian" speed="1.00" length="6.40" width="4.00" shape="864.25,537.56 860.06,532.72"/>
    </edge>
    <edge id=":1655234725_w0" function="walkingarea">
        <lane id=":1655234725_w0_0" index="0" allow="pedestrian" speed="1.00" length="8.74" width="4.00" shape="865.76,536.25 862.74,538.87 864.05,540.38 874.77,531.53 873.54,529.95 870.38,532.41"/>
    </edge>
    <edge id=":1655234725_w1" function="walkingarea">
        <lane id=":1655234725_w1_0" index="0" allow="pedestrian" speed="1.00" length="3.61" width="4.00" shape="869.59,524.91 868.36,523.33 864.92,522.60 863.47,523.98 864.50,524.92 865.53,525.54 866.56,525.85 867.57,525.85 868.59,525.54"/>
    </edge>
    <edge id=":1655234725_w2" function="walkingarea">
        <lane id=":1655234725_w2_0" index="0" allow="pedestrian" speed="1.00" length="3.31" width="4.00" shape="858.82,528.38 857.37,529.76 857.24,532.52 858.55,534.03 859.41,533.13 859.95,532.21 860.16,531.28 860.04,530.33 859.60,529.36"/>
    </edge>
    <edge id=":1756877385_0" function="internal">
        <lane id=":1756877385_0_0" index="0" disallow="tram rail_urban rail rail_electric pedestrian ship" speed="3.65" length="4.67" shape="545.11,482.61 546.53,482.37 547.37,482.67 547.63,483.53 547.31,484.94"/>
    </edge>
    <edge id=":1756877385_w0" function="walkingarea">
        <lane id=":1756877385_w0_0" index="0" allow="pedestrian" speed="1.00" length="8.40" width="2.00" shape="548.40,486.10 549.78,487.56 542.64,479.99 544.01,481.44"/>
    </edge>
    <edge id=":1756877391_0" function="internal">
        <lane id=":1756877391_0_0" index="0" allow="delivery bicycle pedestrian" speed="5.56" length="9.41" shape="693.88,373.09 686.56,379.01"/>
    </edge>
    <edge id=":1756877391_1" function="internal">
        <lane id=":1756877391_1_0" index="0" allow="delivery bicycle pedestrian" speed="5.56" length="10.19" shape="693.88,373.09 691.56,374.45 689.29,374.74 687.06,373.98 684.87,372.15"/>
    </edge>
    <edge id=":1756877391_2" function="internal">
        <lane id=":1756877391_2_0" index="0" allow="delivery bicycle pedestrian" speed="3.65" length="4.67" shape="693.88,373.09 692.44,373.23 691.62,372.86 691.43,371.98 691.86,370.61"/>
    </edge>
    <edge id=":1756877391_3" function="internal">
        <lane id=":1756877391_3_0" index="0" allow="delivery bicycle pedestrian" speed="5.26" length="5.26" shape="687.22,369.98 688.38,370.96 689.54,371.39 690.70,371.27 691.86,370.61"/>
    </edge>
    <edge id=":1756877391_4" function="internal">
        <lane id=":1756877391_4_0" index="0" allow="delivery bicycle pedestrian" speed="5.56" length="10.48" shape="687.22,369.98 688.86,372.37 689.29,374.67 688.53,376.89 686.56,379.01"/>
    </edge>
    <edge id=":1756877391_5" function="internal">
        <lane id=":1756877391_5_0" index="0" allow="delivery bicycle pedestrian" speed="3.65" length="4.67" shape="687.22,369.98 687.44,371.41 687.13,372.24 686.27,372.49 684.87,372.15"/>
    </edge>
    <edge id=":1756877391_6" function="internal">
        <lane id=":1756877391_6_0" index="0" allow="delivery bicycle pedestrian" speed="4.97" length="5.08" shape="684.54,376.52 685.50,375.49 685.87,374.42 685.66,373.31 684.87,372.15"/>
    </edge>
    <edge id=":1756877391_7" function="internal">
        <lane id=":1756877391_7_0" index="0" allow="delivery bicycle pedestrian" speed="5.56" length="9.41" shape="684.54,376.52 691.86,370.61"/>
    </edge>
    <edge id=":1756877391_8" function="internal">
        <lane id=":1756877391_8_0" index="0" allow="delivery bicycle pedestrian" speed="3.65" length="4.67" shape="684.54,376.52 685.98,376.39 686.79,376.76 686.99,377.64 686.56,379.01"/>
    </edge>
    <edge id=":1756877391_w0" function="walkingarea">
        <lane id=":1756877391_w0_0" index="0" allow="pedestrian" speed="1.00" length="6.94" width="3.20" shape="694.88,374.34 692.87,371.85 692.87,371.85 690.86,369.36 688.40,368.90 686.04,371.07 686.04,371.07 683.69,373.23 683.54,375.28 685.55,377.77 685.55,377.77 687.56,380.26"/>
    </edge>
    <edge id=":1756877393_0" function="internal">
        <lane id=":1756877393_0_0" index="0" disallow="tram rail_urban rail rail_electric pedestrian ship" speed="13.89" length="8.85" shape="608.78,362.57 607.20,360.48 606.09,359.06 604.93,357.69 603.17,355.74"/>
    </edge>
    <edge id=":1756877393_1" function="internal">
        <lane id=":1756877393_1_0" index="0" allow="delivery bicycle pedestrian" speed="7.27" length="4.71" shape="608.78,362.57 607.39,359.83 607.45,358.19"/>
    </edge>
    <edge id=":1756877393_2" function="internal">
        <lane id=":1756877393_2_0" index="0" disallow="tram rail_urban rail rail_electric pedestrian ship" speed="3.65" length="2.34" shape="608.78,362.57 608.69,361.13 609.09,360.33"/>
    </edge>
    <edge id=":1756877393_9" function="internal">
        <lane id=":1756877393_9_0" index="0" allow="delivery bicycle pedestrian" speed="7.27" length="7.75" shape="607.45,358.19 607.48,357.22 609.04,354.74 612.08,352.38"/>
    </edge>
    <edge id=":1756877393_10" function="internal">
        <lane id=":1756877393_10_0" index="0" disallow="tram rail_urban rail rail_electric pedestrian ship" speed="3.65" length="2.34" shape="609.09,360.33 609.97,360.16 611.33,360.63"/>
    </edge>
    <edge id=":1756877393_3" function="internal">
        <lane id=":1756877393_3_0" index="0" disallow="tram rail_urban rail rail_electric pedestrian ship" speed="5.60" length="6.93" shape="613.74,355.11 611.89,356.49 610.88,357.87 610.69,359.25 611.33,360.63"/>
    </edge>
    <edge id=":1756877393_4" function="internal">
        <lane id=":1756877393_4_0" index="0" disallow="tram rail_urban rail rail_electric pedestrian ship" speed="7.82" length="11.49" shape="613.74,355.11 610.39,356.78 607.52,357.45 605.11,357.10 603.17,355.74"/>
    </edge>
    <edge id=":1756877393_5" function="internal">
        <lane id=":1756877393_5_0" index="0" allow="delivery bicycle pedestrian" speed="3.65" length="4.67" shape="613.74,355.11 612.30,355.05 611.54,354.58 611.47,353.69 612.08,352.38"/>
    </edge>
    <edge id=":1756877393_6" function="internal">
        <lane id=":1756877393_6_0" index="0" allow="delivery bicycle pedestrian" speed="6.28" length="7.10" shape="605.53,353.58 606.56,354.17 607.99,354.17 609.83,353.57 612.08,352.38"/>
    </edge>
    <edge id=":1756877393_7" function="internal">
        <lane id=":1756877393_7_0" index="0" disallow="tram rail_urban rail rail_electric pedestrian ship" speed="13.89" length="9.14" shape="605.53,353.58 607.35,355.59 608.55,357.01 609.69,358.47 611.33,360.63"/>
    </edge>
    <edge id=":1756877393_8" function="internal">
        <lane id=":1756877393_8_0" index="0" disallow="tram rail_urban rail rail_electric pedestrian ship" speed="3.65" length="2.34" shape="605.53,353.58 605.75,355.00 605.43,355.84"/>
    </edge>
    <edge id=":1756877393_11" function="internal">
        <lane id=":1756877393_11_0" index="0" disallow="tram rail_urban rail rail_electric pedestrian ship" speed="3.65" length="2.34" shape="605.43,355.84 604.57,356.08 603.17,355.74"/>
    </edge>
    <edge id=":1756877393_c0" function="crossing" crossingEdges="27294246#1 -27294246#1">
        <lane id=":1756877393_c0_0" index="0" allow="pedestrian" speed="1.00" length="6.40" width="4.00" shape="611.39,358.07 606.30,361.94"/>
    </edge>
    <edge id=":1756877393_w0" function="walkingarea">
        <lane id=":1756877393_w0_0" index="0" allow="pedestrian" speed="1.00" length="5.86" width="4.00" shape="601.99,356.82 600.52,358.17 605.92,364.75 607.51,363.54 606.39,362.06 605.56,360.97 604.86,360.08 604.14,359.22 603.24,358.19"/>
    </edge>
    <edge id=":1756877393_w1" function="walkingarea">
        <lane id=":1756877393_w1_0" index="0" allow="pedestrian" speed="1.00" length="5.42" width="4.00" shape="612.60,359.66 614.20,358.45 614.57,356.48 612.91,353.75 612.91,353.75 611.25,351.01 608.19,351.15 606.71,352.50 608.04,353.96 609.01,355.06 609.78,355.98 610.53,356.93 611.41,358.09"/>
    </edge>
    <edge id=":1756877396_0" function="internal">
        <lane id=":1756877396_0_0" index="0" allow="delivery bicycle pedestrian" speed="3.65" length="4.67" shape="685.09,380.20 683.65,380.33 682.84,379.96 682.65,379.09 683.08,377.71"/>
    </edge>
    <edge id=":1756877402_0" function="internal">
        <lane id=":1756877402_0_0" index="0" allow="delivery bicycle pedestrian" speed="3.65" length="4.67" shape="698.55,365.20 699.99,365.07 700.80,365.44 701.00,366.31 700.57,367.69"/>
    </edge>
    <edge id=":2020059488_0" function="internal">
        <lane id=":2020059488_0_0" index="0" disallow="tram rail_urban rail rail_electric pedestrian ship" speed="13.89" length="11.36" shape="687.73,475.80 681.50,466.30"/>
    </edge>
    <edge id=":2020059488_1" function="internal">
        <lane id=":2020059488_1_0" index="0" allow="delivery bicycle pedestrian" speed="9.72" length="4.57" shape="687.73,475.80 686.53,472.34 686.81,471.48"/>
    </edge>
    <edge id=":2020059488_2" function="internal">
        <lane id=":2020059488_2_0" index="0" disallow="tram rail_urban rail rail_electric pedestrian ship" speed="3.65" length="2.34" shape="687.73,475.80 687.69,474.36 688.11,473.57"/>
    </edge>
    <edge id=":2020059488_9" function="internal">
        <lane id=":2020059488_9_0" index="0" allow="delivery bicycle pedestrian" speed="9.72" length="8.84" shape="686.81,471.48 687.46,469.43 689.04,466.56 689.76,463.22"/>
    </edge>
    <edge id=":2020059488_10" function="internal">
        <lane id=":2020059488_10_0" index="0" disallow="tram rail_urban rail rail_electric pedestrian ship" speed="3.65" length="2.34" shape="688.11,473.57 688.99,473.43 690.34,473.95"/>
    </edge>
    <edge id=":2020059488_3" function="internal">
        <lane id=":2020059488_3_0" index="0" disallow="tram rail_urban rail rail_electric pedestrian ship" speed="9.72" length="10.20" shape="692.77,464.72 691.69,467.61 690.25,469.65 689.45,471.53 690.34,473.95"/>
    </edge>
    <edge id=":2020059488_4" function="internal">
        <lane id=":2020059488_4_0" index="0" disallow="tram rail_urban rail rail_electric pedestrian ship" speed="7.34" length="19.41" shape="692.77,464.72 691.17,470.61 688.76,472.84 685.54,471.40 681.50,466.30"/>
    </edge>
    <edge id=":2020059488_5" function="internal">
        <lane id=":2020059488_5_0" index="0" allow="delivery bicycle pedestrian" speed="3.81" length="4.91" shape="692.77,464.72 691.45,465.48 690.51,465.48 689.95,464.73 689.76,463.22"/>
    </edge>
    <edge id=":2020059488_6" function="internal">
        <lane id=":2020059488_6_0" index="0" allow="delivery bicycle pedestrian" speed="5.79" length="12.54" shape="684.20,464.57 686.85,468.09 688.67,469.04 689.64,467.42 689.76,463.22"/>
    </edge>
    <edge id=":2020059488_7" function="internal">
        <lane id=":2020059488_7_0" index="0" disallow="tram rail_urban rail rail_electric pedestrian ship" speed="13.89" length="11.21" shape="684.20,464.57 690.34,473.95"/>
    </edge>
    <edge id=":2020059488_8" function="internal">
        <lane id=":2020059488_8_0" index="0" disallow="tram rail_urban rail rail_electric pedestrian ship" speed="3.65" length="2.34" shape="684.20,464.57 684.17,466.01 683.71,466.78"/>
    </edge>
    <edge id=":2020059488_11" function="internal">
        <lane id=":2020059488_11_0" index="0" disallow="tram rail_urban rail rail_electric pedestrian ship" speed="3.65" length="2.34" shape="683.71,466.78 682.82,466.88 681.50,466.30"/>
    </edge>
    <edge id=":2020059488_c0" function="crossing" crossingEdges="197492564#1 -197492564#1">
        <lane id=":2020059488_c0_0" index="0" allow="pedestrian" speed="1.00" length="6.40" width="4.00" shape="690.49,471.39 685.26,475.09"/>
    </edge>
    <edge id=":2020059488_w0" function="walkingarea">
        <lane id=":2020059488_w0_0" index="0" allow="pedestrian" speed="1.00" length="7.73" width="4.00" shape="680.16,467.16 678.47,468.24 684.79,477.88 686.42,476.72 684.11,473.46"/>
    </edge>
    <edge id=":2020059488_w1" function="walkingarea">
        <lane id=":2020059488_w1_0" index="0" allow="pedestrian" speed="1.00" length="6.84" width="4.00" shape="689.33,469.76 691.64,473.03 693.28,471.87 694.35,464.97 691.19,464.48 691.36,463.14 688.16,463.31 687.23,462.63 685.55,463.71"/>
    </edge>
    <edge id=":2020059499_0" function="internal">
        <lane id=":2020059499_0_0" index="0" disallow="tram rail_urban rail rail_electric bicycle pedestrian ship" speed="4.66" length="6.13" shape="703.05,411.22 702.62,409.38 701.82,408.52 700.65,408.64 699.11,409.74"/>
    </edge>
    <edge id=":2020059499_1" function="internal">
        <lane id=":2020059499_1_0" index="0" allow="delivery bicycle pedestrian" speed="3.65" length="4.67" shape="703.05,411.22 703.72,409.95 704.47,409.47 705.31,409.78 706.23,410.89"/>
    </edge>
    <edge id=":2020059499_2" function="internal">
        <lane id=":2020059499_2_0" index="0" allow="delivery bicycle pedestrian" speed="8.58" length="8.81" shape="707.26,402.35 706.54,403.46 706.12,405.25 706.02,407.73 706.23,410.89"/>
    </edge>
    <edge id=":2020059499_3" function="internal">
        <lane id=":2020059499_3_0" index="0" disallow="tram rail_urban rail rail_electric bicycle pedestrian ship" speed="13.89" length="11.05" shape="707.26,402.35 699.11,409.74"/>
        <lane id=":2020059499_3_1" index="1" disallow="tram rail_urban rail rail_electric bicycle pedestrian ship" speed="13.89" length="11.05" shape="705.17,399.93 696.94,407.39"/>
    </edge>
    <edge id=":2020059499_w0" function="walkingarea">
        <lane id=":2020059499_w0_0" index="0" allow="pedestrian" speed="1.00" length="3.20" width="3.20" shape="701.46,411.39 704.64,411.06 704.64,411.06 707.82,410.72"/>
    </edge>
    <edge id=":2020063887_0" function="internal">
        <lane id=":2020063887_0_0" index="0" disallow="tram rail_urban rail rail_electric pedestrian ship" speed="13.89" length="9.41" shape="804.30,436.21 798.52,428.79"/>
    </edge>
    <edge id=":2020063887_1" function="internal">
        <lane id=":2020063887_1_0" index="0" allow="delivery bicycle pedestrian" speed="7.45" length="4.44" shape="804.30,436.21 803.08,433.79 803.10,432.07"/>
    </edge>
    <edge id=":2020063887_2" function="internal">
        <lane id=":2020063887_2_0" index="0" disallow="tram rail_urban rail rail_electric pedestrian ship" speed="3.65" length="2.34" shape="804.30,436.21 804.20,434.77 804.58,433.96"/>
    </edge>
    <edge id=":2020063887_9" function="internal">