<?xml version="1.0" encoding="UTF-8"?>
<!-- generated on 2020-04-20 11:09:50.915091 by $Id$ via randomTrips.py
  options: 
-->
<routes xmlns:xsi="http://www.w3.org/2001/XMLSchema-instance" xsi:noNamespaceSchemaLocation="http://sumo.dlr.de/xsd/routes_file.xsd">
    <vType id="bus_bus" vClass="bus">
    </vType>
    <trip id="bus0" depart="0.00" departLane="best" departSpeed="max" from="-27295090#1" to="-27294246#0" type="bus_bus"/>
    <trip id="bus1" depart="23.50" departLane="best" departSpeed="max" from="-197492564#2" to="172445005#1" type="bus_bus"/>
    <trip id="bus2" depart="47.00" departLane="best" departSpeed="max" from="-197492564#2" to="172445005#1" type="bus_bus"/>
    <trip id="bus4" depart="94.01" departLane="best" departSpeed="max" from="27294246#0" to="197492564#2" type="bus_bus"/>
    <trip id="bus5" depart="117.51" departLane="best" departSpeed="max" from="27294246#0" to="191432325#2" type="bus_bus"/>
    <trip id="bus6" depart="141.01" departLane="best" departSpeed="max" from="27294246#0" to="197492564#2" type="bus_bus"/>
    <trip id="bus7" depart="164.51" departLane="best" departSpeed="max" from="27294246#0" to="191432325#2" type="bus_bus"/>
    <trip id="bus8" depart="188.02" departLane="best" departSpeed="max" from="27294246#0" to="172445005#1" type="bus_bus"/>
    <trip id="bus9" depart="211.52" departLane="best" from="-27295090#0" to="-27294246#0" type="bus_bus"/>
    <trip id="bus10" depart="235.02" departLane="best" departSpeed="max" from="-191432325#2" to="-27294246#0" type="bus_bus"/>
    <trip id="bus11" depart="258.52" departLane="best" departSpeed="max" from="-191432325#2" to="-27294246#0" type="bus_bus"/>
    <trip id="bus12" depart="282.02" departLane="best" departSpeed="max" from="108160061" to="-27294246#0" type="bus_bus"/>
    <trip id="bus13" depart="305.53" departLane="best" departSpeed="max" from="-197492564#2" to="108160105" type="bus_bus"/>
    <trip id="bus14" depart="329.03" departLane="best" departSpeed="max" from="27294246#0" to="197492564#2" type="bus_bus"/>
    <trip id="bus15" depart="352.53" departLane="best" departSpeed="max" from="-27295090#1" to="-27294246#0" type="bus_bus"/>
    <trip id="bus16" depart="376.03" departLane="best" departSpeed="max" from="-197492564#2" to="27295090#1" type="bus_bus"/>
    <trip id="bus17" depart="399.53" departLane="best" departSpeed="max" from="27294246#0" to="108160105" type="bus_bus"/>
    <trip id="bus18" depart="423.04" departLane="best" departSpeed="max" from="314115313#0" to="108697072" type="bus_bus"/>
    <trip id="bus19" depart="446.54" departLane="best" departSpeed="max" from="-27295090#1" to="-27294246#0" type="bus_bus"/>
    <trip id="bus20" depart="470.04" departLane="best" departSpeed="max" from="164026013" to="-27294246#0" type="bus_bus"/>
    <trip id="bus21" depart="493.54" departLane="best" departSpeed="max" from="108160061" to="-27294246#0" type="bus_bus"/>
    <trip id="bus22" depart="517.04" departLane="best" departSpeed="max" from="27294246#0" to="108697072" type="bus_bus"/>
    <trip id="bus23" depart="540.55" departLane="best" departSpeed="max" from="-191432325#2" to="197492564#2" type="bus_bus"/>
    <trip id="bus24" depart="564.05" departLane="best" departSpeed="max" from="191432325#0" to="172445005#1" type="bus_bus"/>
    <trip id="bus25" depart="587.55" departLane="best" departSpeed="max" from="27294246#0" to="172445005#1" type="bus_bus"/>
    <trip id="bus26" depart="611.05" departLane="best" departSpeed="max" from="27294246#0" to="202186944" type="bus_bus"/>
    <trip id="bus27" depart="634.55" departLane="best" departSpeed="max" from="27294246#0" to="27295090#1" type="bus_bus"/>
    <trip id="bus28" depart="658.06" departLane="best" departSpeed="max" from="-191432325#2" to="197492564#2" type="bus_bus"/>
    <trip id="bus29" depart="681.56" departLane="best" departSpeed="max" from="162751446" to="172445005#1" type="bus_bus"/>
    <trip id="bus30" depart="705.06" departLane="best" departSpeed="max" from="-27295090#1" to="202186944" type="bus_bus"/>
    <trip id="bus31" depart="728.56" departLane="best" departSpeed="max" from="108160061" to="-27294246#0" type="bus_bus"/>
    <trip id="bus32" depart="752.06" departLane="best" departSpeed="max" from="162751446" to="197492564#2" type="bus_bus"/>
    <trip id="bus33" depart="775.57" departLane="best" departSpeed="max" from="-197492564#2" to="108160105" type="bus_bus"/>
    <trip id="bus34" depart="799.07" departLane="best" departSpeed="max" from="-197492564#2" to="-27294246#0" type="bus_bus"/>
    <trip id="bus35" depart="822.57" departLane="best" from="-27295090#0" to="-27294246#0" type="bus_bus"/>
    <trip id="bus37" depart="869.57" departLane="best" departSpeed="max" from="-197492564#2" to="-191432325#0" type="bus_bus"/>
    <trip id="bus38" depart="893.08" departLane="best" departSpeed="max" from="162751446" to="197492564#2" type="bus_bus"/>
    <trip id="bus39" depart="916.58" departLane="best" departSpeed="max" from="27294246#0" to="-191432325#0" type="bus_bus"/>
    <trip id="bus40" depart="940.08" departLane="best" departSpeed="max" from="108160061" to="108697072" type="bus_bus"/>
    <trip id="bus41" depart="963.58" departLane="best" departSpeed="max" from="-197492564#2" to="108697072" type="bus_bus"/>
    <trip id="bus42" depart="987.08" departLane="best" departSpeed="max" from="108160061" to="-27294246#0" type="bus_bus"/>
    <trip id="bus43" depart="1010.59" departLane="best" departSpeed="max" from="27294246#0" to="-191432325#0" type="bus_bus"/>
    <trip id="bus44" depart="1034.09" departLane="best" departSpeed="max" from="162751446" to="-27294246#0" type="bus_bus"/>
    <trip id="bus45" depart="1057.59" departLane="best" departSpeed="max" from="108160061" to="27295090#1" type="bus_bus"/>
    <trip id="bus46" depart="1081.09" departLane="best" departSpeed="max" from="-27295090#1" to="197492564#2" type="bus_bus"/>
    <trip id="bus47" depart="1104.59" departLane="best" departSpeed="max" from="164026013" to="197492564#2" type="bus_bus"/>
    <trip id="bus48" depart="1128.09" departLane="best" departSpeed="max" from="-197492564#2" to="-27294246#0" type="bus_bus"/>
    <trip id="bus49" depart="1151.60" departLane="best" departSpeed="max" from="162751446" to="197492564#2" type="bus_bus"/>
    <trip id="bus50" depart="1175.10" departLane="best" departSpeed="max" from="-191432325#2" to="172445005#1" type="bus_bus"/>
    <trip id="bus51" depart="1198.60" departLane="best" departSpeed="max" from="162751446" to="202186944" type="bus_bus"/>
    <trip id="bus52" depart="1222.10" departLane="best" departSpeed="max" from="-197492564#2" to="27295090#1" type="bus_bus"/>
    <trip id="bus53" depart="1245.60" departLane="best" departSpeed="max" from="314115313#0" to="-27294246#0" type="bus_bus"/>
    <trip id="bus54" depart="1269.11" departLane="best" departSpeed="max" from="-27295090#1" to="197492564#2" type="bus_bus"/>
    <trip id="bus55" depart="1292.61" departLane="best" departSpeed="max" from="-191432325#2" to="-27294246#0" type="bus_bus"/>
    <trip id="bus56" depart="1316.11" departLane="best" departSpeed="max" from="27294246#0" to="197492564#2" type="bus_bus"/>
    <trip id="bus57" depart="1339.61" departLane="best" departSpeed="max" from="27294246#0" to="-27294246#1" type="bus_bus"/>
    <trip id="bus58" depart="1363.11" departLane="best" departSpeed="max" from="-197492564#2" to="-191432325#0" type="bus_bus"/>
    <trip id="bus59" depart="1386.62" departLane="best" from="-191432327#0" to="172445005#1" type="bus_bus"/>
    <trip id="bus60" depart="1410.12" departLane="best" departSpeed="max" from="191432325#0" to="-27294246#0" type="bus_bus"/>
    <trip id="bus61" depart="1433.62" departLane="best" departSpeed="max" from="164026013" to="-27294246#0" type="bus_bus"/>
    <trip id="bus63" depart="1480.62" departLane="best" departSpeed="max" from="108160061" to="-27294246#0" type="bus_bus"/>
    <trip id="bus64" depart="1504.13" departLane="best" departSpeed="max" from="-191432325#2" to="197492564#2" type="bus_bus"/>
    <trip id="bus65" depart="1527.63" departLane="best" departSpeed="max" from="164026013" to="-27294246#0" type="bus_bus"/>
    <trip id="bus66" depart="1551.13" departLane="best" departSpeed="max" from="191432325#0" to="172445005#1" type="bus_bus"/>
    <trip id="bus67" depart="1574.63" departLane="best" departSpeed="max" from="27294246#0" to="172445005#1" type="bus_bus"/>
    <trip id="bus68" depart="1598.13" departLane="best" departSpeed="max" from="-197492564#2" to="-191432325#0" type="bus_bus"/>
    <trip id="bus69" depart="1621.64" departLane="best" departSpeed="max" from="27294246#0" to="202186944" type="bus_bus"/>
    <trip id="bus70" depart="1645.14" departLane="best" departSpeed="max" from="314115313#0" to="-27294246#0" type="bus_bus"/>
    <trip id="bus71" depart="1668.64" departLane="best" departSpeed="max" from="27294246#0" to="202186944" type="bus_bus"/>
    <trip id="bus72" depart="1692.14" departLane="best" departSpeed="max" from="-197492564#2" to="27295090#1" type="bus_bus"/>
    <trip id="bus73" depart="1715.64" departLane="best" departSpeed="max" from="27294246#0" to="27295090#1" type="bus_bus"/>
    <trip id="bus74" depart="1739.15" departLane="best" departSpeed="max" from="27294246#0" to="202186944" type="bus_bus"/>
    <trip id="bus75" depart="1762.65" departLane="best" departSpeed="max" from="-191432325#2" to="197492564#2" type="bus_bus"/>
    <trip id="bus76" depart="1786.15" departLane="best" departSpeed="max" from="27294246#0" to="202186944" type="bus_bus"/>
    <trip id="bus77" depart="1809.65" departLane="best" departSpeed="max" from="27294246#0" to="-191432325#0" type="bus_bus"/>
    <trip id="bus78" depart="1833.15" departLane="best" departSpeed="max" from="27294246#0" to="202186944" type="bus_bus"/>
    <trip id="bus79" depart="1856.66" departLane="best" departSpeed="max" from="-197492564#2" to="202186944" type="bus_bus"/>
    <trip id="bus81" depart="1903.66" departLane="best" departSpeed="max" from="-27295090#1" to="202186944" type="bus_bus"/>
    <trip id="bus82" depart="1927.16" departLane="best" departSpeed="max" from="314115313#0" to="-27294246#0" type="bus_bus"/>
    <trip id="bus83" depart="1950.66" departLane="best" departSpeed="max" from="314115313#0" to="-27294246#0" type="bus_bus"/>
    <trip id="bus84" depart="1974.17" departLane="best" departSpeed="max" from="-27295090#1" to="197492564#2" type="bus_bus"/>
    <trip id="bus85" depart="1997.67" departLane="best" departSpeed="max" from="162751446" to="197492564#2" type="bus_bus"/>
    <trip id="bus86" depart="2021.17" departLane="best" departSpeed="max" from="-27295090#1" to="202186944" type="bus_bus"/>
    <trip id="bus87" depart="2044.67" departLane="best" departSpeed="max" from="108160061" to="-27294246#0" type="bus_bus"/>
    <trip id="bus88" depart="2068.17" departLane="best" departSpeed="max" from="-197492564#2" to="108697072" type="bus_bus"/>
    <trip id="bus89" depart="2091.68" departLane="best" departSpeed="max" from="-27295090#1" to="172445005#1" type="bus_bus"/>
    <trip id="bus90" depart="2115.18" departLane="best" from="-152741333" to="-27294246#0" type="bus_bus"/>
    <trip id="bus91" depart="2138.68" departLane="best" from="152741333" to="-27294246#0" type="bus_bus"/>
    <trip id="bus92" depart="2162.18" departLane="best" departSpeed="max" from="27294246#0" to="-191432325#0" type="bus_bus"/>
    <trip id="bus93" depart="2185.68" departLane="best" departSpeed="max" from="-191432325#2" to="172445005#1" type="bus_bus"/>
    <trip id="bus94" depart="2209.19" departLane="best" departSpeed="max" from="27294246#0" to="197492564#2" type="bus_bus"/>
    <trip id="bus95" depart="2232.69" departLane="best" departSpeed="max" from="191432325#0" to="-27294246#0" type="bus_bus"/>
    <trip id="bus98" depart="2303.19" departLane="best" departSpeed="max" from="-197492564#2" to="197492564#1" type="bus_bus"/>
    <trip id="bus99" depart="2326.70" departLane="best" departSpeed="max" from="162751446" to="-27294246#0" type="bus_bus"/>
    <trip id="bus100" depart="2350.20" departLane="best" departSpeed="max" from="191432325#0" to="197492564#2" type="bus_bus"/>
    <trip id="bus101" depart="2373.70" departLane="best" departSpeed="max" from="-197492564#2" to="27295090#1" type="bus_bus"/>
    <trip id="bus103" depart="2420.70" departLane="best" departSpeed="max" from="-27295090#1" to="202186944" type="bus_bus"/>
    <trip id="bus104" depart="2444.21" departLane="best" departSpeed="max" from="162751446" to="202186944" type="bus_bus"/>
    <trip id="bus105" depart="2467.71" departLane="best" departSpeed="max" from="191432325#0" to="172445005#1" type="bus_bus"/>
    <trip id="bus106" depart="2491.21" departLane="best" departSpeed="max" from="27294246#0" to="172445005#1" type="bus_bus"/>
    <trip id="bus107" depart="2514.71" departLane="best" departSpeed="max" from="314115313#0" to="197492564#2" type="bus_bus"/>
    <trip id="bus108" depart="2538.21" departLane="best" departSpeed="max" from="162751446" to="-27294246#0" type="bus_bus"/>
    <trip id="bus109" depart="2561.72" departLane="best" departSpeed="max" from="164026013" to="-27294246#0" type="bus_bus"/>
    <trip id="bus110" depart="2585.22" departLane="best" departSpeed="max" from="-191432325#2" to="-27294246#0" type="bus_bus"/>
    <trip id="bus111" depart="2608.72" departLane="best" departSpeed="max" from="108160061" to="-27294246#0" type="bus_bus"/>
    <trip id="bus112" depart="2632.22" departLane="best" departSpeed="max" from="108160061" to="27295090#1" type="bus_bus"/>
    <trip id="bus113" depart="2655.72" departLane="best" departSpeed="max" from="27294246#0" to="197492564#2" type="bus_bus"/>
    <trip id="bus114" depart="2679.23" departLane="best" departSpeed="max" from="108160061" to="197492564#2" type="bus_bus"/>
    <trip id="bus115" depart="2702.73" departLane="best" departSpeed="max" from="27294246#0" to="27295090#1" type="bus_bus"/>
    <trip id="bus116" depart="2726.23" departLane="best" departSpeed="max" from="108160061" to="197492564#2" type="bus_bus"/>
    <trip id="bus117" depart="2749.73" departLane="best" departSpeed="max" from="-197492564#2" to="-27294246#0" type="bus_bus"/>
    <trip id="bus118" depart="2773.23" departLane="best" departSpeed="max" from="-197492564#2" to="108697072" type="bus_bus"/>
    <trip id="bus119" depart="2796.74" departLane="best" departSpeed="max" from="-197492564#2" to="108160105" type="bus_bus"/>
    <trip id="bus120" depart="2820.24" departLane="best" departSpeed="max" from="-191432325#2" to="172445005#1" type="bus_bus"/>
    <trip id="bus121" depart="2843.74" departLane="best" departSpeed="max" from="164026013" to="197492564#2" type="bus_bus"/>
    <trip id="bus122" depart="2867.24" departLane="best" departSpeed="max" from="191432325#0" to="197492564#2" type="bus_bus"/>
    <trip id="bus123" depart="2890.74" departLane="best" departSpeed="max" from="-197492564#2" to="191432325#2" type="bus_bus"/>
    <trip id="bus124" depart="2914.25" departLane="best" departSpeed="max" from="164026013" to="-27294246#0" type="bus_bus"/>
    <trip id="bus125" depart="2937.75" departLane="best" departSpeed="max" from="191432325#0" to="197492564#2" type="bus_bus"/>
    <trip id="bus126" depart="2961.25" departLane="best" departSpeed="max" from="-197492564#2" to="191432325#2" type="bus_bus"/>
    <trip id="bus127" depart="2984.75" departLane="best" departSpeed="max" from="27294246#0" to="27295090#1" type="bus_bus"/>
    <trip id="bus128" depart="3008.25" departLane="best" departSpeed="max" from="-191432325#2" to="197492564#2" type="bus_bus"/>
    <trip id="bus129" depart="3031.76" departLane="best" departSpeed="max" from="27294246#0" to="191432325#2" type="bus_bus"/>
    <trip id="bus130" depart="3055.26" departLane="best" departSpeed="max" from="-197492564#2" to="27295090#1" type="bus_bus"/>
    <trip id="bus131" depart="3078.76" departLane="best" departSpeed="max" from="27294246#0" to="108160105" type="bus_bus"/>
    <trip id="bus132" depart="3102.26" departLane="best" departSpeed="max" from="162751446" to="108160105" type="bus_bus"/>
    <trip id="bus133" depart="3125.76" departLane="best" departSpeed="max" from="27294246#0" to="202186944" type="bus_bus"/>
    <trip id="bus134" depart="3149.26" departLane="best" departSpeed="max" from="-27295090#1" to="202186944" type="bus_bus"/>
    <trip id="bus135" depart="3172.77" departLane="best" departSpeed="max" from="108160061" to="197492564#2" type="bus_bus"/>
    <trip id="bus136" depart="3196.27" departLane="best" departSpeed="max" from="-27295090#1" to="202186944" type="bus_bus"/>
    <trip id="bus138" depart="3243.27" departLane="best" from="27294246#1" to="-27294246#0" type="bus_bus"/>
    <trip id="bus139" depart="3266.77" departLane="best" departSpeed="max" from="27294246#0" to="-191432325#0" type="bus_bus"/>
    <trip id="bus140" depart="3290.28" departLane="best" departSpeed="max" from="-197492564#2" to="202186944" type="bus_bus"/>
    <trip id="bus141" depart="3313.78" departLane="best" departSpeed="max" from="191432325#0" to="-27294246#0" type="bus_bus"/>
    <trip id="bus142" depart="3337.28" departLane="best" departSpeed="max" from="-191432325#2" to="197492564#2" type="bus_bus"/>
    <trip id="bus143" depart="3360.78" departLane="best" departSpeed="max" from="162751446" to="197492564#2" type="bus_bus"/>
    <trip id="bus144" depart="3384.28" departLane="best" departSpeed="max" from="162751446" to="202186944" type="bus_bus"/>
    <trip id="bus145" depart="3407.79" departLane="best" departSpeed="max" from="-191432325#2" to="-27294246#0" type="bus_bus"/>
    <trip id="bus146" depart="3431.29" departLane="best" departSpeed="max" from="164026013" to="108697072" type="bus_bus"/>
    <trip id="bus147" depart="3454.79" departLane="best" departSpeed="max" from="191432325#0" to="-27294246#0" type="bus_bus"/>
    <trip id="bus148" depart="3478.29" departLane="best" departSpeed="max" from="-197492564#2" to="-191432325#0" type="bus_bus"/>
    <trip id="bus149" depart="3501.79" departLane="best" departSpeed="max" from="162751446" to="197492564#2" type="bus_bus"/>
    <trip id="bus150" depart="3525.30" departLane="best" departSpeed="max" from="-197492564#2" to="-27294246#0" type="bus_bus"/>
    <trip id="bus151" depart="3548.80" departLane="best" departSpeed="max" from="162751446" to="197492564#2" type="bus_bus"/>
    <trip id="bus152" depart="3572.30" departLane="best" departSpeed="max" from="-197492564#2" to="-27294246#0" type="bus_bus"/>
</routes>
